@<TRIPOS>MOLECULE
Cpptraj generated mol2 file.
   12    12     1     0     0
SMALL
USER_CHARGES


@<TRIPOS>ATOM
      1 C_12       81.0041   84.3645   85.1516 c2         1 COR     -0.130000
      2 C5         81.9731   85.0836   84.5803 c2         1 COR     -0.130000
      3 C1         80.3296   83.3612   84.5459 c2         1 COR     -0.130000
      4 C_8        82.3259   84.8285   83.2749 c2         1 COR     -0.130000
      5 C_4        80.8093   83.0042   83.3322 c2         1 COR     -0.130000
      6 C3         81.7588   83.7478   82.7177 c2         1 COR     -0.130000
      7 H1         82.4954   85.8605   85.1345 ha         1 COR      0.130000
      8 H2         79.5574   82.8216   85.0901 ha         1 COR      0.130000
      9 H3         83.1125   85.3874   82.7724 ha         1 COR      0.130000
     10 H4         80.4241   82.1686   82.7518 ha         1 COR      0.130000
     11 H5         82.1118   83.5557   81.7067 ha         1 COR      0.130000
     12 H7         80.5777   84.5909   86.1266 ha         1 COR      0.130000
@<TRIPOS>BOND
    1     2     1 1
    2     3     1 1
    3     4     2 1
    4     5     3 1
    5     6     4 1
    6     6     5 1
    7     7     2 1
    8     8     3 1
    9     9     4 1
   10    10     5 1
   11    11     6 1
   12    12     1 1
@<TRIPOS>SUBSTRUCTURE
      1 COR               1 ****               0 ****  **** 
