@<TRIPOS>MOLECULE
Cpptraj generated mol2 file.
   13    13     1     0     0
SMALL
USER_CHARGES


@<TRIPOS>ATOM
      1 C_12       81.0041   84.3645   85.1516 c2         1 COR      0.378900
      2 C5         81.9731   85.0836   84.5803 c2         1 COR     -0.278300
      3 C1         80.3296   83.3612   84.5459 c2         1 COR     -0.222300
      4 C_8        82.3259   84.8285   83.2749 c2         1 COR     -0.092000
      5 C_4        80.8093   83.0042   83.3322 c2         1 COR     -0.097000
      6 C3         81.7588   83.7478   82.7177 c2         1 COR     -0.166000
      7 H1         82.4954   85.8605   85.1345 ha         1 COR      0.133000
      8 H2         79.5574   82.8216   85.0901 ha         1 COR      0.150000
      9 H3         83.1125   85.3874   82.7724 ha         1 COR      0.132000
     10 H4         80.4241   82.1686   82.7518 ha         1 COR      0.134000
     11 H5         82.1118   83.5557   81.7067 ha         1 COR      0.133000
     12 O1         80.6252   84.6598   86.4068 oh         1 COR     -0.624300
     13 H7         81.0778   85.4961   86.6127 ho         1 COR      0.418000
@<TRIPOS>BOND
    1     1    12 1
    2     2     1 1
    3     3     1 1
    4     4     2 1
    5     5     3 1
    6     6     4 1
    7     6     5 1
    8     2     7 1
    9     3     8 1
   10     4     9 1
   11     5    10 1
   12     6    11 1
   13    13    12 1
@<TRIPOS>SUBSTRUCTURE
      1 COR               1 ****               0 ****  **** 
