@<TRIPOS>MOLECULE
Cpptraj generated mol2 file.
 1806  1806   602     0     0
SMALL
USER_CHARGES


@<TRIPOS>ATOM
      1 O          20.8833   12.1129   14.9344 OW         1 WAT     -0.834000
      2 H1         21.6794   12.3943   15.3853 HW         1 WAT      0.417000
      3 H2         20.3781   12.9172   14.8160 HW         1 WAT      0.417000
      4 O          12.5634   17.1166   15.4941 OW         2 WAT     -0.834000
      5 H1         13.2109   16.5979   15.9715 HW         2 WAT      0.417000
      6 H2         13.0656   17.5508   14.8045 HW         2 WAT      0.417000
      7 O          19.0209   22.1576   24.4832 OW         3 WAT     -0.834000
      8 H1         19.9334   22.2947   24.7378 HW         3 WAT      0.417000
      9 H2         19.0303   21.3361   23.9919 HW         3 WAT      0.417000
     10 O          24.2787   21.5677   11.0201 OW         4 WAT     -0.834000
     11 H1         24.6904   22.3814   11.3110 HW         4 WAT      0.417000
     12 H2         23.7717   21.2721   11.7764 HW         4 WAT      0.417000
     13 O           1.3899   17.7498    8.2633 OW         5 WAT     -0.834000
     14 H1          2.3109   17.7777    8.5224 HW         5 WAT      0.417000
     15 H2          1.0460   16.9627    8.6858 HW         5 WAT      0.417000
     16 O          17.2720   19.9716   14.8146 OW         6 WAT     -0.834000
     17 H1         16.9692   19.1934   14.3465 HW         6 WAT      0.417000
     18 H2         16.4686   20.4123   15.0914 HW         6 WAT      0.417000
     19 O          15.2253   24.2038   24.4318 OW         7 WAT     -0.834000
     20 H1         14.5437   23.5450   24.5649 HW         7 WAT      0.417000
     21 H2         15.3918   24.1890   23.4893 HW         7 WAT      0.417000
     22 O           9.9887   14.6678   19.6566 OW         8 WAT     -0.834000
     23 H1         10.3322   13.8197   19.9373 HW         8 WAT      0.417000
     24 H2         10.7645   15.1697   19.4067 HW         8 WAT      0.417000
     25 O          13.4036   23.6409   15.4920 OW         9 WAT     -0.834000
     26 H1         12.6269   23.6475   16.0514 HW         9 WAT      0.417000
     27 H2         13.1484   23.1149   14.7341 HW         9 WAT      0.417000
     28 O          17.7338    0.9483    2.6717 OW        10 WAT     -0.834000
     29 H1         17.6096    0.5114    1.8291 HW        10 WAT      0.417000
     30 H2         17.0549    1.6227    2.6941 HW        10 WAT      0.417000
     31 O          22.1602   16.9932   15.1447 OW        11 WAT     -0.834000
     32 H1         21.9055   17.1080   14.2292 HW        11 WAT      0.417000
     33 H2         22.3371   17.8805   15.4571 HW        11 WAT      0.417000
     34 O          17.2763   19.1397   21.0414 OW        12 WAT     -0.834000
     35 H1         16.7401   19.6805   20.4616 HW        12 WAT      0.417000
     36 H2         17.8200   18.6201   20.4492 HW        12 WAT      0.417000
     37 O          21.9849   19.8190   15.5922 OW        13 WAT     -0.834000
     38 H1         21.1230   20.1326   15.3184 HW        13 WAT      0.417000
     39 H2         22.1525   20.2705   16.4194 HW        13 WAT      0.417000
     40 O           0.3004   10.0168   21.4390 OW        14 WAT     -0.834000
     41 H1          0.6251   10.6637   22.0654 HW        14 WAT      0.417000
     42 H2         -0.0176   10.5368   20.7009 HW        14 WAT      0.417000
     43 O          25.6130    4.0729    8.0651 OW        15 WAT     -0.834000
     44 H1         25.6760    3.3861    7.4013 HW        15 WAT      0.417000
     45 H2         25.7766    4.8851    7.5857 HW        15 WAT      0.417000
     46 O          12.8106   21.6592    7.6620 OW        16 WAT     -0.834000
     47 H1         13.4484   21.7813    8.3652 HW        16 WAT      0.417000
     48 H2         13.0204   20.8004    7.2949 HW        16 WAT      0.417000
     49 O          20.4562   11.2978   25.9993 OW        17 WAT     -0.834000
     50 H1         20.1452   10.7925   26.7504 HW        17 WAT      0.417000
     51 H2         19.8731   11.0459   25.2832 HW        17 WAT      0.417000
     52 O          23.8074    5.4955   22.2429 OW        18 WAT     -0.834000
     53 H1         23.9035    5.5942   21.2957 HW        18 WAT      0.417000
     54 H2         24.1121    6.3286   22.6026 HW        18 WAT      0.417000
     55 O          18.8290   14.8150   22.5429 OW        19 WAT     -0.834000
     56 H1         19.7571   14.8533   22.3117 HW        19 WAT      0.417000
     57 H2         18.8057   15.0276   23.4759 HW        19 WAT      0.417000
     58 O          17.2905    1.0343   19.2689 OW        20 WAT     -0.834000
     59 H1         16.5468    0.9836   19.8694 HW        20 WAT      0.417000
     60 H2         16.8977    0.9911   18.3970 HW        20 WAT      0.417000
     61 O          17.6047   23.5832   13.9387 OW        21 WAT     -0.834000
     62 H1         18.3558   23.4321   13.3649 HW        21 WAT      0.417000
     63 H2         17.9330   23.3943   14.8178 HW        21 WAT      0.417000
     64 O          14.4669   16.0545   17.5108 OW        22 WAT     -0.834000
     65 H1         15.2268   16.2430   16.9601 HW        22 WAT      0.417000
     66 H2         14.7458   15.3229   18.0614 HW        22 WAT      0.417000
     67 O          12.1037   12.5897   24.7781 OW        23 WAT     -0.834000
     68 H1         12.5711   12.1532   25.4903 HW        23 WAT      0.417000
     69 H2         11.8377   13.4319   25.1469 HW        23 WAT      0.417000
     70 O          17.0493    4.3600   11.7442 OW        24 WAT     -0.834000
     71 H1         16.9675    3.6913   12.4242 HW        24 WAT      0.417000
     72 H2         16.6020    3.9858   10.9852 HW        24 WAT      0.417000
     73 O           3.5767    0.6829   12.9161 OW        25 WAT     -0.834000
     74 H1          3.8656    0.5319   12.0162 HW        25 WAT      0.417000
     75 H2          3.1081   -0.1170   13.1547 HW        25 WAT      0.417000
     76 O          19.3652   15.6132   25.1838 OW        26 WAT     -0.834000
     77 H1         20.0657   15.0988   25.5849 HW        26 WAT      0.417000
     78 H2         19.0330   16.1610   25.8950 HW        26 WAT      0.417000
     79 O          11.5992    0.7808   13.4569 OW        27 WAT     -0.834000
     80 H1         10.9705    0.9818   12.7637 HW        27 WAT      0.417000
     81 H2         12.4551    0.8781   13.0397 HW        27 WAT      0.417000
     82 O          25.0362   17.9816   10.9599 OW        28 WAT     -0.834000
     83 H1         25.4346   18.3696   11.7390 HW        28 WAT      0.417000
     84 H2         25.1980   17.0426   11.0506 HW        28 WAT      0.417000
     85 O          22.1322   20.1660   19.7095 OW        29 WAT     -0.834000
     86 H1         21.1986   19.9554   19.7005 HW        29 WAT      0.417000
     87 H2         22.2062   20.9501   19.1655 HW        29 WAT      0.417000
     88 O           1.3867    7.5539   16.9603 OW        30 WAT     -0.834000
     89 H1          1.6390    6.7851   16.4490 HW        30 WAT      0.417000
     90 H2          1.1396    7.2023   17.8156 HW        30 WAT      0.417000
     91 O           1.1874   24.0246   26.9915 OW        31 WAT     -0.834000
     92 H1          0.7861   24.8055   27.3728 HW        31 WAT      0.417000
     93 H2          2.1261   24.2117   26.9950 HW        31 WAT      0.417000
     94 O          21.1965   17.5060   22.0968 OW        32 WAT     -0.834000
     95 H1         21.0447   16.5623   22.1487 HW        32 WAT      0.417000
     96 H2         21.8814   17.6744   22.7439 HW        32 WAT      0.417000
     97 O          15.9600   17.2748   15.2729 OW        33 WAT     -0.834000
     98 H1         15.4577   17.6726   14.5618 HW        33 WAT      0.417000
     99 H2         16.4940   16.6061   14.8440 HW        33 WAT      0.417000
    100 O           0.5004   11.8975   14.7154 OW        34 WAT     -0.834000
    101 H1          0.1312   11.0618   15.0007 HW        34 WAT      0.417000
    102 H2          1.0803   11.6678   13.9893 HW        34 WAT      0.417000
    103 O          21.6897   16.9853   19.0914 OW        35 WAT     -0.834000
    104 H1         22.2364   17.7710   19.0948 HW        35 WAT      0.417000
    105 H2         21.2340   17.0070   19.9329 HW        35 WAT      0.417000
    106 O          15.6335   12.7725   23.3560 OW        36 WAT     -0.834000
    107 H1         15.0910   12.0159   23.1335 HW        36 WAT      0.417000
    108 H2         16.5151   12.5255   23.0764 HW        36 WAT      0.417000
    109 O           2.5550   23.2876   10.9081 OW        37 WAT     -0.834000
    110 H1          3.4266   23.6703   11.0088 HW        37 WAT      0.417000
    111 H2          2.5328   22.9773   10.0029 HW        37 WAT      0.417000
    112 O          17.4934   13.5708   20.5259 OW        38 WAT     -0.834000
    113 H1         17.8801   14.1077   21.2176 HW        38 WAT      0.417000
    114 H2         18.0951   12.8323   20.4313 HW        38 WAT      0.417000
    115 O          21.6972   23.5273   21.0377 OW        39 WAT     -0.834000
    116 H1         22.2632   24.1090   20.5303 HW        39 WAT      0.417000
    117 H2         22.1938   23.3461   21.8356 HW        39 WAT      0.417000
    118 O          24.2684   18.4635    3.8274 OW        40 WAT     -0.834000
    119 H1         24.1861   17.7328    3.2146 HW        40 WAT      0.417000
    120 H2         25.0166   18.2316    4.3776 HW        40 WAT      0.417000
    121 O          13.8607   17.2183    2.8182 OW        41 WAT     -0.834000
    122 H1         14.6010   17.4645    3.3727 HW        41 WAT      0.417000
    123 H2         14.2440   17.0875    1.9510 HW        41 WAT      0.417000
    124 O          24.5042   25.5836   17.3232 OW        42 WAT     -0.834000
    125 H1         25.1830   25.3442   16.6923 HW        42 WAT      0.417000
    126 H2         23.8561   26.0633   16.8072 HW        42 WAT      0.417000
    127 O          13.4365   22.0601   24.3634 OW        43 WAT     -0.834000
    128 H1         13.5325   21.1077   24.3646 HW        43 WAT      0.417000
    129 H2         12.8845   22.2442   23.6034 HW        43 WAT      0.417000
    130 O           7.3397   23.4555   19.0753 OW        44 WAT     -0.834000
    131 H1          8.0999   22.8950   19.2311 HW        44 WAT      0.417000
    132 H2          6.6849   22.8705   18.6942 HW        44 WAT      0.417000
    133 O          16.4552   20.3107   24.6662 OW        45 WAT     -0.834000
    134 H1         16.5913   21.0746   24.1056 HW        45 WAT      0.417000
    135 H2         16.5128   20.6545   25.5576 HW        45 WAT      0.417000
    136 O          18.7074   25.1278   18.3212 OW        46 WAT     -0.834000
    137 H1         19.2209   25.4616   17.5856 HW        46 WAT      0.417000
    138 H2         18.6803   25.8545   18.9436 HW        46 WAT      0.417000
    139 O          19.4469   19.8456   19.0384 OW        47 WAT     -0.834000
    140 H1         19.2812   20.7774   18.8958 HW        47 WAT      0.417000
    141 H2         18.9245   19.4041   18.3688 HW        47 WAT      0.417000
    142 O          19.4480   21.5598   15.8735 OW        48 WAT     -0.834000
    143 H1         18.7828   20.8819   15.7551 HW        48 WAT      0.417000
    144 H2         19.0405   22.1952   16.4621 HW        48 WAT      0.417000
    145 O          19.3268   22.7787   19.7707 OW        49 WAT     -0.834000
    146 H1         19.0696   23.6363   19.4322 HW        49 WAT      0.417000
    147 H2         20.0944   22.9562   20.3144 HW        49 WAT      0.417000
    148 O          22.3990   15.1717   25.0508 OW        50 WAT     -0.834000
    149 H1         22.4671   15.3916   25.9799 HW        50 WAT      0.417000
    150 H2         23.0757   14.5091   24.9114 HW        50 WAT      0.417000
    151 O           2.7152   17.3973   19.6009 OW        51 WAT     -0.834000
    152 H1          2.5506   16.5845   20.0790 HW        51 WAT      0.417000
    153 H2          1.9465   17.5056   19.0408 HW        51 WAT      0.417000
    154 O           3.7722   14.3074    0.6603 OW        52 WAT     -0.834000
    155 H1          3.2218   14.7204   -0.0051 HW        52 WAT      0.417000
    156 H2          3.9704   13.4416    0.3035 HW        52 WAT      0.417000
    157 O          18.4764    9.4782    9.1431 OW        53 WAT     -0.834000
    158 H1         19.0549    8.8024    9.4963 HW        53 WAT      0.417000
    159 H2         17.5945    9.1274    9.2672 HW        53 WAT      0.417000
    160 O          25.5768   24.0138   21.5722 OW        54 WAT     -0.834000
    161 H1         25.3695   23.6332   22.4257 HW        54 WAT      0.417000
    162 H2         26.2243   24.6923   21.7634 HW        54 WAT      0.417000
    163 O          21.4623   14.8265   22.4348 OW        55 WAT     -0.834000
    164 H1         22.2694   14.3153   22.3758 HW        55 WAT      0.417000
    165 H2         21.4441   15.1419   23.3384 HW        55 WAT      0.417000
    166 O           4.0631   17.1204    9.4794 OW        56 WAT     -0.834000
    167 H1          3.8476   17.7266   10.1881 HW        56 WAT      0.417000
    168 H2          4.8876   17.4515    9.1234 HW        56 WAT      0.417000
    169 O          24.9966   16.1289   21.9489 OW        57 WAT     -0.834000
    170 H1         25.5506   16.5172   22.6261 HW        57 WAT      0.417000
    171 H2         24.6810   16.8758   21.4402 HW        57 WAT      0.417000
    172 O          16.3238   26.0642    5.4758 OW        58 WAT     -0.834000
    173 H1         15.7018   25.3376    5.4370 HW        58 WAT      0.417000
    174 H2         16.7672   26.0455    4.6277 HW        58 WAT      0.417000
    175 O          12.5779   16.0084   19.3051 OW        59 WAT     -0.834000
    176 H1         13.1883   16.0647   18.5699 HW        59 WAT      0.417000
    177 H2         13.1276   15.7849   20.0562 HW        59 WAT      0.417000
    178 O          20.3612   20.1294    2.3178 OW        60 WAT     -0.834000
    179 H1         19.4838   19.9274    1.9928 HW        60 WAT      0.417000
    180 H2         20.3322   19.8972    3.2459 HW        60 WAT      0.417000
    181 O          22.8785    0.8085   15.7192 OW        61 WAT     -0.834000
    182 H1         23.0866    1.7080   15.4667 HW        61 WAT      0.417000
    183 H2         22.7473    0.3509   14.8888 HW        61 WAT      0.417000
    184 O          -0.0249   23.8014   11.6368 OW        62 WAT     -0.834000
    185 H1          0.2074   24.0085   12.5420 HW        62 WAT      0.417000
    186 H2          0.8147   23.6506   11.2026 HW        62 WAT      0.417000
    187 O          22.8486   11.9482   25.2890 OW        63 WAT     -0.834000
    188 H1         22.0193   11.5193   25.5000 HW        63 WAT      0.417000
    189 H2         22.6190   12.6015   24.6281 HW        63 WAT      0.417000
    190 O          20.4007    0.4666   19.9338 OW        64 WAT     -0.834000
    191 H1         20.6579    1.3625   19.7158 HW        64 WAT      0.417000
    192 H2         21.1968   -0.0491   19.8055 HW        64 WAT      0.417000
    193 O          15.0354   21.2619   15.7441 OW        65 WAT     -0.834000
    194 H1         14.4488   21.0083   16.4567 HW        65 WAT      0.417000
    195 H2         14.9039   22.2053   15.6499 HW        65 WAT      0.417000
    196 O          22.8199   18.3956   24.2999 OW        66 WAT     -0.834000
    197 H1         22.0849   18.8043   24.7571 HW        66 WAT      0.417000
    198 H2         22.6898   17.4561   24.4291 HW        66 WAT      0.417000
    199 O          17.1686    4.5294   17.9841 OW        67 WAT     -0.834000
    200 H1         17.9771    4.5290   17.4717 HW        67 WAT      0.417000
    201 H2         16.5363    4.9912   17.4335 HW        67 WAT      0.417000
    202 O          20.0533   14.8191   15.0839 OW        68 WAT     -0.834000
    203 H1         20.7013   15.4993   14.9005 HW        68 WAT      0.417000
    204 H2         19.8992   14.8829   16.0264 HW        68 WAT      0.417000
    205 O          15.6978   20.5549   19.0456 OW        69 WAT     -0.834000
    206 H1         16.2636   19.9572   18.5569 HW        69 WAT      0.417000
    207 H2         14.9626   20.7242   18.4565 HW        69 WAT      0.417000
    208 O          16.4012    1.8083   14.3063 OW        70 WAT     -0.834000
    209 H1         16.8754    1.7529   15.1360 HW        70 WAT      0.417000
    210 H2         15.9650    0.9603   14.2227 HW        70 WAT      0.417000
    211 O          21.2905    1.3954   12.8082 OW        71 WAT     -0.834000
    212 H1         21.4177    1.8488   11.9748 HW        71 WAT      0.417000
    213 H2         20.7885    2.0114   13.3418 HW        71 WAT      0.417000
    214 O          16.3424   17.9211   23.3087 OW        72 WAT     -0.834000
    215 H1         16.7611   18.0678   22.4605 HW        72 WAT      0.417000
    216 H2         16.4812   18.7375   23.7887 HW        72 WAT      0.417000
    217 O          23.9066    3.4405   23.8750 OW        73 WAT     -0.834000
    218 H1         23.1211    2.9037   23.7702 HW        73 WAT      0.417000
    219 H2         23.8046    4.1423   23.2322 HW        73 WAT      0.417000
    220 O          21.0423    8.2329   22.8408 OW        74 WAT     -0.834000
    221 H1         20.5635    7.9735   23.6280 HW        74 WAT      0.417000
    222 H2         20.5133    7.8974   22.1171 HW        74 WAT      0.417000
    223 O          12.3574   13.8607   22.4811 OW        75 WAT     -0.834000
    224 H1         12.3659   13.3551   23.2938 HW        75 WAT      0.417000
    225 H2         13.2608   14.1587   22.3749 HW        75 WAT      0.417000
    226 O           0.7568    4.6134   23.7684 OW        76 WAT     -0.834000
    227 H1          0.0388    3.9820   23.8126 HW        76 WAT      0.417000
    228 H2          0.3236    5.4652   23.7134 HW        76 WAT      0.417000
    229 O          24.4678   20.3807   23.3866 OW        77 WAT     -0.834000
    230 H1         25.2295   20.2641   22.8187 HW        77 WAT      0.417000
    231 H2         24.1850   19.4901   23.5940 HW        77 WAT      0.417000
    232 O          14.7915   15.4656   22.9350 OW        78 WAT     -0.834000
    233 H1         15.1508   14.5917   23.0880 HW        78 WAT      0.417000
    234 H2         15.4890   16.0622   23.2067 HW        78 WAT      0.417000
    235 O          15.1266    2.5833    4.9433 OW        79 WAT     -0.834000
    236 H1         15.0049    1.8439    5.5389 HW        79 WAT      0.417000
    237 H2         16.0485    2.8211    5.0419 HW        79 WAT      0.417000
    238 O          20.3405    4.9748   21.6240 OW        80 WAT     -0.834000
    239 H1         21.0590    4.3499   21.5270 HW        80 WAT      0.417000
    240 H2         19.5543    4.4699   21.4162 HW        80 WAT      0.417000
    241 O           6.2228    9.5045   24.5131 OW        81 WAT     -0.834000
    242 H1          6.4366    8.7608   23.9496 HW        81 WAT      0.417000
    243 H2          5.5894    9.1555   25.1402 HW        81 WAT      0.417000
    244 O          15.5913   13.6584   26.0265 OW        82 WAT     -0.834000
    245 H1         14.7979   13.2467   26.3690 HW        82 WAT      0.417000
    246 H2         15.7346   13.2349   25.1801 HW        82 WAT      0.417000
    247 O          18.6911   18.6435   26.9898 OW        83 WAT     -0.834000
    248 H1         18.2233   17.8084   26.9793 HW        83 WAT      0.417000
    249 H2         18.2754   19.1420   27.6933 HW        83 WAT      0.417000
    250 O          20.8915   16.3934    2.1081 OW        84 WAT     -0.834000
    251 H1         21.5592   16.3097    2.7889 HW        84 WAT      0.417000
    252 H2         21.2980   16.0187    1.3266 HW        84 WAT      0.417000
    253 O          16.7668    2.4306    9.8547 OW        85 WAT     -0.834000
    254 H1         17.2440    1.8985    9.2181 HW        85 WAT      0.417000
    255 H2         15.8441    2.2616    9.6644 HW        85 WAT      0.417000
    256 O          19.2281   23.6938    4.7425 OW        86 WAT     -0.834000
    257 H1         19.7980   24.1237    4.1049 HW        86 WAT      0.417000
    258 H2         18.8648   22.9438    4.2716 HW        86 WAT      0.417000
    259 O          20.4517   13.8235   27.0471 OW        87 WAT     -0.834000
    260 H1         20.8157   13.5296   27.8822 HW        87 WAT      0.417000
    261 H2         20.7003   13.1407   26.4240 HW        87 WAT      0.417000
    262 O          15.5270   19.7917    4.2202 OW        88 WAT     -0.834000
    263 H1         15.7749   20.1949    3.3882 HW        88 WAT      0.417000
    264 H2         16.3281   19.3689    4.5296 HW        88 WAT      0.417000
    265 O          11.4732   17.9756    3.4648 OW        89 WAT     -0.834000
    266 H1         12.2811   17.7109    3.0249 HW        89 WAT      0.417000
    267 H2         11.7645   18.5395    4.1814 HW        89 WAT      0.417000
    268 O          18.0956   21.7318    3.5205 OW        90 WAT     -0.834000
    269 H1         17.8177   21.3582    2.6842 HW        90 WAT      0.417000
    270 H2         18.4689   20.9926    4.0007 HW        90 WAT      0.417000
    271 O           5.0868   14.5771    8.6478 OW        91 WAT     -0.834000
    272 H1          5.2835   14.3150    7.7484 HW        91 WAT      0.417000
    273 H2          4.9505   15.5232    8.5972 HW        91 WAT      0.417000
    274 O          18.6408   16.0364    7.2979 OW        92 WAT     -0.834000
    275 H1         18.3476   15.4220    7.9708 HW        92 WAT      0.417000
    276 H2         18.6875   16.8800    7.7477 HW        92 WAT      0.417000
    277 O           9.1942   17.6006    9.3164 OW        93 WAT     -0.834000
    278 H1          9.2027   18.1494   10.1006 HW        93 WAT      0.417000
    279 H2          9.7586   16.8595    9.5367 HW        93 WAT      0.417000
    280 O           1.9336   11.8250   11.7160 OW        94 WAT     -0.834000
    281 H1          2.6024   11.9048   12.3961 HW        94 WAT      0.417000
    282 H2          2.3681   12.1224   10.9166 HW        94 WAT      0.417000
    283 O          14.1479    1.1613   11.9956 OW        95 WAT     -0.834000
    284 H1         14.2935    0.5318   11.2893 HW        95 WAT      0.417000
    285 H2         14.8924    1.7603   11.9397 HW        95 WAT      0.417000
    286 O          12.7951    2.8955    7.0293 OW        96 WAT     -0.834000
    287 H1         12.0825    3.5270    7.1278 HW        96 WAT      0.417000
    288 H2         12.3548    2.0597    6.8753 HW        96 WAT      0.417000
    289 O           2.7551    1.5502   10.3676 OW        97 WAT     -0.834000
    290 H1          2.3508    1.6502   11.2294 HW        97 WAT      0.417000
    291 H2          2.0232    1.3622    9.7800 HW        97 WAT      0.417000
    292 O          25.1097   23.4147    8.3236 OW        98 WAT     -0.834000
    293 H1         24.5718   22.9744    8.9816 HW        98 WAT      0.417000
    294 H2         25.7834   22.7737    8.0969 HW        98 WAT      0.417000
    295 O          17.8309   23.7395    7.2169 OW        99 WAT     -0.834000
    296 H1         17.0517   23.1836    7.2205 HW        99 WAT      0.417000
    297 H2         18.1727   23.6672    6.3257 HW        99 WAT      0.417000
    298 O          21.6822   25.8405   27.1029 OW       100 WAT     -0.834000
    299 H1         21.6872   25.4032   26.2514 HW       100 WAT      0.417000
    300 H2         22.2245   25.2834   27.6613 HW       100 WAT      0.417000
    301 O          20.5762   18.6936    8.2981 OW       101 WAT     -0.834000
    302 H1         21.4485   18.3936    8.0427 HW       101 WAT      0.417000
    303 H2         20.7382   19.3629    8.9629 HW       101 WAT      0.417000
    304 O          17.4597   17.9819    5.6788 OW       102 WAT     -0.834000
    305 H1         16.7808   17.3129    5.5911 HW       102 WAT      0.417000
    306 H2         17.9863   17.6925    6.4239 HW       102 WAT      0.417000
    307 O          18.8140   24.5508    1.3005 OW       103 WAT     -0.834000
    308 H1         18.3424   24.9789    0.5860 HW       103 WAT      0.417000
    309 H2         18.1886   24.5353    2.0249 HW       103 WAT      0.417000
    310 O           8.4011   25.1028   21.1965 OW       104 WAT     -0.834000
    311 H1          7.7853   25.7946   21.4381 HW       104 WAT      0.417000
    312 H2          7.9254   24.5709   20.5585 HW       104 WAT      0.417000
    313 O          20.6640   12.2212    7.6631 OW       105 WAT     -0.834000
    314 H1         21.0998   11.4031    7.9021 HW       105 WAT      0.417000
    315 H2         20.7608   12.7786    8.4352 HW       105 WAT      0.417000
    316 O          16.0370   21.5203    6.5543 OW       106 WAT     -0.834000
    317 H1         15.7015   20.8989    5.9082 HW       106 WAT      0.417000
    318 H2         16.6725   21.0169    7.0632 HW       106 WAT      0.417000
    319 O          15.6236   24.1104   21.7459 OW       107 WAT     -0.834000
    320 H1         15.3153   23.2192   21.5818 HW       107 WAT      0.417000
    321 H2         15.9291   24.4191   20.8930 HW       107 WAT      0.417000
    322 O          17.9808   19.1332    8.5757 OW       108 WAT     -0.834000
    323 H1         18.9264   18.9891    8.5402 HW       108 WAT      0.417000
    324 H2         17.8765   19.9007    9.1382 HW       108 WAT      0.417000
    325 O          21.3441   24.8298   13.5912 OW       109 WAT     -0.834000
    326 H1         20.8442   24.2483   13.0183 HW       109 WAT      0.417000
    327 H2         21.2062   25.7034   13.2249 HW       109 WAT      0.417000
    328 O           4.4318    8.6210   26.1722 OW       110 WAT     -0.834000
    329 H1          3.7171    7.9848   26.2002 HW       110 WAT      0.417000
    330 H2          4.8430    8.5573   27.0343 HW       110 WAT      0.417000
    331 O          22.0831   25.0161   24.6251 OW       111 WAT     -0.834000
    332 H1         22.1387   25.3237   23.7204 HW       111 WAT      0.417000
    333 H2         21.8304   24.0959   24.5501 HW       111 WAT      0.417000
    334 O          20.5514   19.3400   25.2124 OW       112 WAT     -0.834000
    335 H1         20.0338   19.3790   24.4082 HW       112 WAT      0.417000
    336 H2         19.9494   18.9874   25.8678 HW       112 WAT      0.417000
    337 O          10.6292   26.3864    8.8018 OW       113 WAT     -0.834000
    338 H1         10.7966   25.4723    9.0309 HW       113 WAT      0.417000
    339 H2         10.9813   26.4798    7.9166 HW       113 WAT      0.417000
    340 O          16.5700    2.8658   25.9127 OW       114 WAT     -0.834000
    341 H1         15.7452    3.2852   25.6674 HW       114 WAT      0.417000
    342 H2         17.2008    3.1811   25.2654 HW       114 WAT      0.417000
    343 O          16.3265   15.8350    4.2256 OW       115 WAT     -0.834000
    344 H1         16.5974   14.9493    4.4675 HW       115 WAT      0.417000
    345 H2         16.9924   16.1275    3.6032 HW       115 WAT      0.417000
    346 O          13.4947   19.3530    6.3992 OW       116 WAT     -0.834000
    347 H1         13.8543   19.5656    5.5379 HW       116 WAT      0.417000
    348 H2         13.5623   18.4000    6.4583 HW       116 WAT      0.417000
    349 O          23.5981   26.2206    4.8171 OW       117 WAT     -0.834000
    350 H1         23.9532   25.3673    4.5682 HW       117 WAT      0.417000
    351 H2         23.4475   26.1515    5.7598 HW       117 WAT      0.417000
    352 O           9.0122   22.7517    4.2120 OW       118 WAT     -0.834000
    353 H1          8.5716   22.1339    3.6287 HW       118 WAT      0.417000
    354 H2          8.9681   22.3396    5.0748 HW       118 WAT      0.417000
    355 O          21.0975   21.5012   27.2565 OW       119 WAT     -0.834000
    356 H1         20.6793   21.5087   28.1174 HW       119 WAT      0.417000
    357 H2         20.5036   20.9908   26.7061 HW       119 WAT      0.417000
    358 O          17.0575    8.3315    0.2722 OW       120 WAT     -0.834000
    359 H1         17.9277    7.9338    0.3012 HW       120 WAT      0.417000
    360 H2         16.5377    7.7318   -0.2630 HW       120 WAT      0.417000
    361 O          22.7024   19.5295    9.7707 OW       121 WAT     -0.834000
    362 H1         23.5252   19.0712    9.5997 HW       121 WAT      0.417000
    363 H2         22.9593   20.4424    9.9008 HW       121 WAT      0.417000
    364 O          17.5333   15.2721    0.1431 OW       122 WAT     -0.834000
    365 H1         16.7642   14.8318   -0.2188 HW       122 WAT      0.417000
    366 H2         18.1776   14.5735    0.2572 HW       122 WAT      0.417000
    367 O          21.6645   16.1678   10.2789 OW       123 WAT     -0.834000
    368 H1         22.3194   16.4458    9.6386 HW       123 WAT      0.417000
    369 H2         21.9126   16.6182   11.0862 HW       123 WAT      0.417000
    370 O          22.1860   23.4316    5.9934 OW       124 WAT     -0.834000
    371 H1         22.3629   24.2052    6.5287 HW       124 WAT      0.417000
    372 H2         21.3892   23.6516    5.5107 HW       124 WAT      0.417000
    373 O          24.1751   17.5999    8.1539 OW       125 WAT     -0.834000
    374 H1         25.1217   17.6723    8.2765 HW       125 WAT      0.417000
    375 H2         23.9807   18.1978    7.4322 HW       125 WAT      0.417000
    376 O          19.8685   22.1468   13.1011 OW       126 WAT     -0.834000
    377 H1         19.9541   21.7711   13.9773 HW       126 WAT      0.417000
    378 H2         19.3023   21.5339   12.6319 HW       126 WAT      0.417000
    379 O          15.5657   22.5220   12.2847 OW       127 WAT     -0.834000
    380 H1         15.1009   23.3254   12.0507 HW       127 WAT      0.417000
    381 H2         16.0512   22.7485   13.0779 HW       127 WAT      0.417000
    382 O          21.1883   21.0931    6.8594 OW       128 WAT     -0.834000
    383 H1         21.7848   20.3798    6.6324 HW       128 WAT      0.417000
    384 H2         21.6537   21.8873    6.5970 HW       128 WAT      0.417000
    385 O          13.7947   15.3826    5.0572 OW       129 WAT     -0.834000
    386 H1         13.1813   15.4808    4.3290 HW       129 WAT      0.417000
    387 H2         14.6596   15.4276    4.6495 HW       129 WAT      0.417000
    388 O          24.0658   15.7862   17.5337 OW       130 WAT     -0.834000
    389 H1         23.7176   15.7439   18.4243 HW       130 WAT      0.417000
    390 H2         23.3231   15.5569   16.9751 HW       130 WAT      0.417000
    391 O           7.6406   23.7341   11.0630 OW       131 WAT     -0.834000
    392 H1          7.8271   24.5906   10.6784 HW       131 WAT      0.417000
    393 H2          8.4670   23.2559   10.9949 HW       131 WAT      0.417000
    394 O          18.7008   16.4546   11.2656 OW       132 WAT     -0.834000
    395 H1         19.6043   16.7173   11.0893 HW       132 WAT      0.417000
    396 H2         18.2480   17.2737   11.4662 HW       132 WAT      0.417000
    397 O           0.5226   17.5943   17.9347 OW       133 WAT     -0.834000
    398 H1          0.4234   16.7791   17.4428 HW       133 WAT      0.417000
    399 H2         -0.0376   17.4805   18.7024 HW       133 WAT      0.417000
    400 O          22.5547   18.3805    6.0920 OW       134 WAT     -0.834000
    401 H1         23.1417   18.5921    5.3662 HW       134 WAT      0.417000
    402 H2         21.9786   17.7001    5.7436 HW       134 WAT      0.417000
    403 O          22.3544   17.9068   12.4546 OW       135 WAT     -0.834000
    404 H1         22.3109   18.6540   11.8579 HW       135 WAT      0.417000
    405 H2         23.2898   17.7226   12.5400 HW       135 WAT      0.417000
    406 O           6.6357   17.7832    8.3785 OW       136 WAT     -0.834000
    407 H1          6.7835   17.7568    7.4331 HW       136 WAT      0.417000
    408 H2          7.5084   17.8992    8.7542 HW       136 WAT      0.417000
    409 O          18.2006   20.9500   11.1630 OW       137 WAT     -0.834000
    410 H1         17.5363   21.6268   11.2934 HW       137 WAT      0.417000
    411 H2         18.6441   21.2027   10.3532 HW       137 WAT      0.417000
    412 O          24.7072   23.3440    4.6915 OW       138 WAT     -0.834000
    413 H1         25.0863   22.8197    5.3969 HW       138 WAT      0.417000
    414 H2         23.8001   23.4881    4.9611 HW       138 WAT      0.417000
    415 O          25.1337   17.2735    1.3651 OW       139 WAT     -0.834000
    416 H1         25.7803   17.8834    1.0099 HW       139 WAT      0.417000
    417 H2         25.5887   16.4318    1.3934 HW       139 WAT      0.417000
    418 O          14.7559   24.0196    6.9397 OW       140 WAT     -0.834000
    419 H1         14.4501   23.7474    7.8050 HW       140 WAT      0.417000
    420 H2         14.9133   23.1993    6.4723 HW       140 WAT      0.417000
    421 O          21.2147   13.5304    9.8595 OW       141 WAT     -0.834000
    422 H1         21.3151   14.4582   10.0725 HW       141 WAT      0.417000
    423 H2         21.7160   13.0740   10.5353 HW       141 WAT      0.417000
    424 O          14.0420   18.3457   13.6748 OW       142 WAT     -0.834000
    425 H1         14.6246   18.0439   12.9779 HW       142 WAT      0.417000
    426 H2         13.2854   18.7086   13.2142 HW       142 WAT      0.417000
    427 O          23.0941   25.4866    7.4380 OW       143 WAT     -0.834000
    428 H1         23.5108   24.7650    7.9091 HW       143 WAT      0.417000
    429 H2         23.2469   26.2532    7.9903 HW       143 WAT      0.417000
    430 O           0.2312   21.1198    6.0341 OW       144 WAT     -0.834000
    431 H1          0.0346   20.4035    5.4303 HW       144 WAT      0.417000
    432 H2          0.3968   20.6880    6.8722 HW       144 WAT      0.417000
    433 O          12.4631   18.6631    9.2344 OW       145 WAT     -0.834000
    434 H1         12.0993   17.9074    8.7730 HW       145 WAT      0.417000
    435 H2         12.5798   19.3258    8.5537 HW       145 WAT      0.417000
    436 O          12.9389   25.4083    3.7413 OW       146 WAT     -0.834000
    437 H1         12.4560   24.6085    3.5330 HW       146 WAT      0.417000
    438 H2         13.5516   25.5145    3.0136 HW       146 WAT      0.417000
    439 O           8.6894   25.6158   17.7613 OW       147 WAT     -0.834000
    440 H1          8.2620   25.0382   18.3937 HW       147 WAT      0.417000
    441 H2          9.3042   25.0484   17.2962 HW       147 WAT      0.417000
    442 O          25.3676   23.0150   24.0700 OW       148 WAT     -0.834000
    443 H1         25.1876   23.2842   24.9707 HW       148 WAT      0.417000
    444 H2         24.9255   22.1709   23.9793 HW       148 WAT      0.417000
    445 O          16.0165   11.6057   10.2923 OW       149 WAT     -0.834000
    446 H1         15.6663   10.9242   10.8660 HW       149 WAT      0.417000
    447 H2         16.9582   11.6026   10.4637 HW       149 WAT      0.417000
    448 O          13.1026   16.4213    7.5008 OW       150 WAT     -0.834000
    449 H1         13.8363   16.3120    8.1057 HW       150 WAT      0.417000
    450 H2         13.3788   15.9673    6.7047 HW       150 WAT      0.417000
    451 O           1.6866    0.1099   17.8691 OW       151 WAT     -0.834000
    452 H1          0.8358    0.1233   17.4307 HW       151 WAT      0.417000
    453 H2          1.6431    0.8300   18.4983 HW       151 WAT      0.417000
    454 O           5.5686    1.6930    6.1070 OW       152 WAT     -0.834000
    455 H1          5.8948    2.1893    5.3563 HW       152 WAT      0.417000
    456 H2          4.7538    1.2978    5.7970 HW       152 WAT      0.417000
    457 O          23.4953    9.3764   19.5932 OW       153 WAT     -0.834000
    458 H1         23.1860    9.4491   18.6903 HW       153 WAT      0.417000
    459 H2         22.9380    8.7032   19.9838 HW       153 WAT      0.417000
    460 O          19.3438   19.9169    4.9460 OW       154 WAT     -0.834000
    461 H1         18.8379   19.1490    5.2117 HW       154 WAT      0.417000
    462 H2         19.8702   20.1348    5.7152 HW       154 WAT      0.417000
    463 O          13.1364   21.2252   18.0437 OW       155 WAT     -0.834000
    464 H1         12.6566   20.4136   18.2086 HW       155 WAT      0.417000
    465 H2         12.8025   21.8382   18.6987 HW       155 WAT      0.417000
    466 O          19.2939   21.8342    8.6110 OW       156 WAT     -0.834000
    467 H1         18.9294   22.6865    8.3723 HW       156 WAT      0.417000
    468 H2         19.9450   21.6537    7.9330 HW       156 WAT      0.417000
    469 O          17.8100   14.3117    9.8158 OW       157 WAT     -0.834000
    470 H1         17.9669   13.5169   10.3255 HW       157 WAT      0.417000
    471 H2         18.1760   15.0157   10.3511 HW       157 WAT      0.417000
    472 O          19.3618    5.8662   12.0963 OW       158 WAT     -0.834000
    473 H1         18.6024    5.3175   11.8999 HW       158 WAT      0.417000
    474 H2         19.2663    6.6231   11.5181 HW       158 WAT      0.417000
    475 O           8.9045    7.7377   20.8248 OW       159 WAT     -0.834000
    476 H1          8.3684    7.0222   20.4829 HW       159 WAT      0.417000
    477 H2          9.6077    7.8379   20.1831 HW       159 WAT      0.417000
    478 O          22.7117    4.0576   15.4962 OW       160 WAT     -0.834000
    479 H1         23.5471    4.2082   15.9384 HW       160 WAT      0.417000
    480 H2         22.6204    4.7991   14.8978 HW       160 WAT      0.417000
    481 O          12.8195    5.3327   19.1166 OW       161 WAT     -0.834000
    482 H1         11.9449    5.1402   18.7785 HW       161 WAT      0.417000
    483 H2         13.3242    4.5385   18.9412 HW       161 WAT      0.417000
    484 O          21.9320    6.9142   19.9137 OW       162 WAT     -0.834000
    485 H1         22.3337    6.0967   19.6197 HW       162 WAT      0.417000
    486 H2         21.4802    6.6809   20.7247 HW       162 WAT      0.417000
    487 O           1.8479    1.9605   19.7164 OW       163 WAT     -0.834000
    488 H1          2.4761    2.6475   19.4936 HW       163 WAT      0.417000
    489 H2          1.0612    2.4339   19.9869 HW       163 WAT      0.417000
    490 O          20.6208    8.1457   17.9441 OW       164 WAT     -0.834000
    491 H1         20.9344    7.6764   18.7173 HW       164 WAT      0.417000
    492 H2         21.4017    8.2659   17.4038 HW       164 WAT      0.417000
    493 O          17.6206   23.0426   17.1562 OW       165 WAT     -0.834000
    494 H1         18.0607   23.6682   17.7317 HW       165 WAT      0.417000
    495 H2         16.8381   22.7805   17.6412 HW       165 WAT      0.417000
    496 O          23.8173   24.3651    2.1144 OW       166 WAT     -0.834000
    497 H1         24.3857   25.1004    1.8854 HW       166 WAT      0.417000
    498 H2         24.1012   24.1070    2.9914 HW       166 WAT      0.417000
    499 O          20.3259    1.1996    3.9861 OW       167 WAT     -0.834000
    500 H1         20.9934    0.5991    3.6544 HW       167 WAT      0.417000
    501 H2         19.5478    1.0051    3.4636 HW       167 WAT      0.417000
    502 O          23.1089   11.7479   21.0671 OW       168 WAT     -0.834000
    503 H1         23.7824   12.3688   20.7895 HW       168 WAT      0.417000
    504 H2         23.2439   10.9825   20.5084 HW       168 WAT      0.417000
    505 O          24.3734   23.0371   15.0868 OW       169 WAT     -0.834000
    506 H1         23.5561   23.2154   15.5521 HW       169 WAT      0.417000
    507 H2         24.2617   22.1532   14.7367 HW       169 WAT      0.417000
    508 O          23.0543   25.7558   19.7868 OW       170 WAT     -0.834000
    509 H1         23.3941   25.4055   18.9634 HW       170 WAT      0.417000
    510 H2         23.6941   26.4185   20.0472 HW       170 WAT      0.417000
    511 O          22.8726    8.7737   16.6227 OW       171 WAT     -0.834000
    512 H1         23.7707    9.0996   16.6816 HW       171 WAT      0.417000
    513 H2         22.8950    8.1377   15.9077 HW       171 WAT      0.417000
    514 O          20.2932   15.1480   17.8038 OW       172 WAT     -0.834000
    515 H1         20.7480   15.8074   18.3277 HW       172 WAT      0.417000
    516 H2         20.4457   14.3255   18.2691 HW       172 WAT      0.417000
    517 O          13.3015   11.2970   26.7940 OW       173 WAT     -0.834000
    518 H1         14.1168   11.0417   27.2255 HW       173 WAT      0.417000
    519 H2         12.8380   10.4720   26.6501 HW       173 WAT      0.417000
    520 O          19.1423    3.3687   14.2452 OW       174 WAT     -0.834000
    521 H1         18.5988    3.9807   13.7490 HW       174 WAT      0.417000
    522 H2         19.8187    3.9170   14.6428 HW       174 WAT      0.417000
    523 O           9.5155   10.5247   18.8995 OW       175 WAT     -0.834000
    524 H1          9.7615   11.3311   19.3528 HW       175 WAT      0.417000
    525 H2         10.2670    9.9440   19.0189 HW       175 WAT      0.417000
    526 O          25.0544    2.1650    3.5548 OW       176 WAT     -0.834000
    527 H1         24.7338    1.5896    4.2494 HW       176 WAT      0.417000
    528 H2         25.0107    1.6306    2.7619 HW       176 WAT      0.417000
    529 O          25.4400   11.1433   24.0895 OW       177 WAT     -0.834000
    530 H1         25.9509   11.8826   23.7600 HW       177 WAT      0.417000
    531 H2         24.8596   11.5273   24.7468 HW       177 WAT      0.417000
    532 O           0.5491   20.4006   21.3522 OW       178 WAT     -0.834000
    533 H1          1.4086   20.5743   20.9685 HW       178 WAT      0.417000
    534 H2         -0.0495   20.9667   20.8650 HW       178 WAT      0.417000
    535 O          23.8475    1.4611    8.9743 OW       179 WAT     -0.834000
    536 H1         22.9280    1.6497    8.7865 HW       179 WAT      0.417000
    537 H2         24.1455    2.2110    9.4891 HW       179 WAT      0.417000
    538 O          15.7830    5.4938   22.9980 OW       180 WAT     -0.834000
    539 H1         16.5880    5.0052   23.1693 HW       180 WAT      0.417000
    540 H2         16.0751    6.3939   22.8543 HW       180 WAT      0.417000
    541 O          17.4417   13.0449   17.4554 OW       181 WAT     -0.834000
    542 H1         18.3727   13.2501   17.5415 HW       181 WAT      0.417000
    543 H2         17.3294   12.2312   17.9468 HW       181 WAT      0.417000
    544 O          22.2121    2.8423   21.1966 OW       182 WAT     -0.834000
    545 H1         22.7125    2.0711   20.9297 HW       182 WAT      0.417000
    546 H2         21.8559    2.6115   22.0545 HW       182 WAT      0.417000
    547 O          18.6126   24.6703   26.0009 OW       183 WAT     -0.834000
    548 H1         19.5468   24.5033   26.1255 HW       183 WAT      0.417000
    549 H2         18.5102   24.7640   25.0538 HW       183 WAT      0.417000
    550 O          20.1859   10.9886   17.4395 OW       184 WAT     -0.834000
    551 H1         20.2253   11.2502   16.5196 HW       184 WAT      0.417000
    552 H2         20.7780   10.2391   17.5010 HW       184 WAT      0.417000
    553 O          15.8123   24.6358   18.8534 OW       185 WAT     -0.834000
    554 H1         16.3279   25.2205   18.2980 HW       185 WAT      0.417000
    555 H2         14.9030   24.8756   18.6744 HW       185 WAT      0.417000
    556 O           4.3311    8.8426   21.0349 OW       186 WAT     -0.834000
    557 H1          3.7828    8.6345   21.7914 HW       186 WAT      0.417000
    558 H2          5.0383    9.3797   21.3921 HW       186 WAT      0.417000
    559 O          15.5362    9.8481   15.8742 OW       187 WAT     -0.834000
    560 H1         16.3745    9.6713   16.3011 HW       187 WAT      0.417000
    561 H2         15.7581   10.4173   15.1372 HW       187 WAT      0.417000
    562 O           1.4841    6.8370    2.8189 OW       188 WAT     -0.834000
    563 H1          1.1009    7.0466    1.9671 HW       188 WAT      0.417000
    564 H2          2.3847    6.5811    2.6198 HW       188 WAT      0.417000
    565 O          11.1429    6.1718   12.7711 OW       189 WAT     -0.834000
    566 H1         10.8581    6.0987   11.8602 HW       189 WAT      0.417000
    567 H2         10.6832    6.9423   13.1046 HW       189 WAT      0.417000
    568 O           3.4556   12.3031   20.2968 OW       190 WAT     -0.834000
    569 H1          3.4562   12.8540   19.5141 HW       190 WAT      0.417000
    570 H2          3.1691   11.4446   19.9853 HW       190 WAT      0.417000
    571 O           6.1835    0.3124   26.2881 OW       191 WAT     -0.834000
    572 H1          6.8358    0.3888   25.5918 HW       191 WAT      0.417000
    573 H2          6.6504   -0.1114   27.0083 HW       191 WAT      0.417000
    574 O          18.7288   11.8689   10.6864 OW       192 WAT     -0.834000
    575 H1         18.8299   11.0032   10.2908 HW       192 WAT      0.417000
    576 H2         19.6220   12.2058   10.7570 HW       192 WAT      0.417000
    577 O          13.4805    7.8990   19.5294 OW       193 WAT     -0.834000
    578 H1         13.1713    6.9949   19.5848 HW       193 WAT      0.417000
    579 H2         14.4294    7.8220   19.4303 HW       193 WAT      0.417000
    580 O          14.8945    3.7382   15.5426 OW       194 WAT     -0.834000
    581 H1         15.4379    3.0750   15.1171 HW       194 WAT      0.417000
    582 H2         15.1240    4.5556   15.1004 HW       194 WAT      0.417000
    583 O           0.3058    7.9906   19.6235 OW       195 WAT     -0.834000
    584 H1         -0.1649    8.6126   20.1783 HW       195 WAT      0.417000
    585 H2          1.0151    7.6647   20.1774 HW       195 WAT      0.417000
    586 O          18.3076    7.3332   21.5327 OW       196 WAT     -0.834000
    587 H1         18.0014    7.7469   22.3398 HW       196 WAT      0.417000
    588 H2         18.9369    6.6739   21.8253 HW       196 WAT      0.417000
    589 O          16.1670    7.2622   19.0940 OW       197 WAT     -0.834000
    590 H1         16.8051    6.9003   19.7090 HW       197 WAT      0.417000
    591 H2         16.3485    6.8129   18.2685 HW       197 WAT      0.417000
    592 O          21.6210    6.9841   25.7368 OW       198 WAT     -0.834000
    593 H1         21.9920    6.1586   26.0485 HW       198 WAT      0.417000
    594 H2         22.2129    7.6558   26.0756 HW       198 WAT      0.417000
    595 O          11.1841   12.2209   20.4229 OW       199 WAT     -0.834000
    596 H1         11.4951   11.3528   20.6793 HW       199 WAT      0.417000
    597 H2         11.6186   12.8200   21.0299 HW       199 WAT      0.417000
    598 O          21.1939    2.9065   17.6995 OW       200 WAT     -0.834000
    599 H1         21.6172    3.1568   16.8783 HW       200 WAT      0.417000
    600 H2         20.8015    3.7172   18.0235 HW       200 WAT      0.417000
    601 O          23.2269    9.2589   26.6719 OW       201 WAT     -0.834000
    602 H1         23.7079    9.8020   27.2964 HW       201 WAT      0.417000
    603 H2         23.4616    9.6146   25.8148 HW       201 WAT      0.417000
    604 O          15.0821   14.1607   19.4936 OW       202 WAT     -0.834000
    605 H1         15.9216   13.8741   19.8532 HW       202 WAT      0.417000
    606 H2         14.5957   13.3497   19.3452 HW       202 WAT      0.417000
    607 O          23.7047   26.0910   12.5562 OW       203 WAT     -0.834000
    608 H1         23.2624   25.2643   12.3630 HW       203 WAT      0.417000
    609 H2         23.0594   26.7641   12.3399 HW       203 WAT      0.417000
    610 O          15.5198    7.3982    4.8490 OW       204 WAT     -0.834000
    611 H1         15.3383    8.0263    4.1498 HW       204 WAT      0.417000
    612 H2         16.1577    7.8407    5.4088 HW       204 WAT      0.417000
    613 O          12.7179    9.7918   15.8519 OW       205 WAT     -0.834000
    614 H1         12.5719   10.6088   15.3750 HW       205 WAT      0.417000
    615 H2         13.6703    9.7049   15.8920 HW       205 WAT      0.417000
    616 O          13.3670    7.6321    2.3777 OW       206 WAT     -0.834000
    617 H1         12.6455    7.1418    2.7717 HW       206 WAT      0.417000
    618 H2         13.3803    8.4625    2.8536 HW       206 WAT      0.417000
    619 O          18.8610    7.5913    4.3669 OW       207 WAT     -0.834000
    620 H1         18.8649    6.6363    4.4320 HW       207 WAT      0.417000
    621 H2         19.4126    7.8830    5.0928 HW       207 WAT      0.417000
    622 O          18.3433    3.4642   20.1989 OW       208 WAT     -0.834000
    623 H1         18.0769    2.5563   20.0541 HW       208 WAT      0.417000
    624 H2         18.0738    3.9227   19.4030 HW       208 WAT      0.417000
    625 O           0.5890    3.5646   12.6797 OW       209 WAT     -0.834000
    626 H1          0.6565    2.6109   12.6316 HW       209 WAT      0.417000
    627 H2         -0.0581    3.7928   12.0123 HW       209 WAT      0.417000
    628 O          18.0405   12.7640    1.1700 OW       210 WAT     -0.834000
    629 H1         18.2541   12.9417    0.2540 HW       210 WAT      0.417000
    630 H2         18.5095   11.9546    1.3726 HW       210 WAT      0.417000
    631 O          23.5231   20.4710   13.4896 OW       211 WAT     -0.834000
    632 H1         22.8821   20.1383   14.1178 HW       211 WAT      0.417000
    633 H2         24.2869   19.9056   13.6045 HW       211 WAT      0.417000
    634 O          17.1419   12.2225   14.7879 OW       212 WAT     -0.834000
    635 H1         17.2546   12.5366   15.6850 HW       212 WAT      0.417000
    636 H2         16.6878   12.9359   14.3395 HW       212 WAT      0.417000
    637 O          14.3367   10.9931   19.1983 OW       213 WAT     -0.834000
    638 H1         14.9702   10.9995   18.4808 HW       213 WAT      0.417000
    639 H2         13.7864   10.2293   19.0252 HW       213 WAT      0.417000
    640 O          21.0451   13.0388   19.4498 OW       214 WAT     -0.834000
    641 H1         20.8400   12.3152   18.8577 HW       214 WAT      0.417000
    642 H2         21.5555   12.6362   20.1524 HW       214 WAT      0.417000
    643 O          22.6585   21.6817   17.2768 OW       215 WAT     -0.834000
    644 H1         23.3420   22.1714   17.7342 HW       215 WAT      0.417000
    645 H2         22.0709   22.3546   16.9331 HW       215 WAT      0.417000
    646 O          24.8430    1.4817   20.7834 OW       216 WAT     -0.834000
    647 H1         25.1746    2.3743   20.6856 HW       216 WAT      0.417000
    648 H2         25.3574    1.1124   21.5012 HW       216 WAT      0.417000
    649 O          21.7260   23.9759   16.1506 OW       217 WAT     -0.834000
    650 H1         21.6416   24.3529   15.2749 HW       217 WAT      0.417000
    651 H2         20.8846   24.1547   16.5705 HW       217 WAT      0.417000
    652 O          19.9920    5.4412   17.0484 OW       218 WAT     -0.834000
    653 H1         20.2784    6.1367   17.6404 HW       218 WAT      0.417000
    654 H2         19.9358    5.8641   16.1915 HW       218 WAT      0.417000
    655 O          19.7770    1.8936   27.1698 OW       219 WAT     -0.834000
    656 H1         20.1959    1.0665   26.9319 HW       219 WAT      0.417000
    657 H2         18.9222    1.6380   27.5166 HW       219 WAT      0.417000
    658 O          15.6794   11.3289    1.2039 OW       220 WAT     -0.834000
    659 H1         15.9849   10.6541    1.8102 HW       220 WAT      0.417000
    660 H2         16.2938   12.0533    1.3226 HW       220 WAT      0.417000
    661 O           1.0825   11.6682   17.9002 OW       221 WAT     -0.834000
    662 H1          1.8283   11.0900   18.0608 HW       221 WAT      0.417000
    663 H2          0.9266   11.6020   16.9581 HW       221 WAT      0.417000
    664 O          15.1073    9.8890   24.8379 OW       222 WAT     -0.834000
    665 H1         14.9245    9.8083   23.9018 HW       222 WAT      0.417000
    666 H2         14.3014   10.2479   25.2093 HW       222 WAT      0.417000
    667 O          25.0091    4.0422   16.6748 OW       223 WAT     -0.834000
    668 H1         25.5241    4.5734   16.0674 HW       223 WAT      0.417000
    669 H2         25.5259    3.2453   16.7935 HW       223 WAT      0.417000
    670 O          24.5518    3.8884   10.5591 OW       224 WAT     -0.834000
    671 H1         24.1244    4.7203   10.3556 HW       224 WAT      0.417000
    672 H2         25.1051    3.7110    9.7984 HW       224 WAT      0.417000
    673 O          21.4793    2.2144    7.8186 OW       225 WAT     -0.834000
    674 H1         22.2389    2.3142    7.2447 HW       225 WAT      0.417000
    675 H2         20.7551    2.6016    7.3268 HW       225 WAT      0.417000
    676 O           7.1057    5.7665   15.8520 OW       226 WAT     -0.834000
    677 H1          7.8948    5.4250   15.4314 HW       226 WAT      0.417000
    678 H2          7.2747    6.7032   15.9537 HW       226 WAT      0.417000
    679 O          17.0160   10.7000   18.5217 OW       227 WAT     -0.834000
    680 H1         17.0919    9.8007   18.2027 HW       227 WAT      0.417000
    681 H2         16.8826   10.6090   19.4652 HW       227 WAT      0.417000
    682 O          20.4505    6.6751   14.5144 OW       228 WAT     -0.834000
    683 H1         20.2695    6.3136   13.6467 HW       228 WAT      0.417000
    684 H2         21.2413    7.2010   14.3946 HW       228 WAT      0.417000
    685 O          17.1982   10.2684   21.0850 OW       229 WAT     -0.834000
    686 H1         17.6451   10.3177   21.9300 HW       229 WAT      0.417000
    687 H2         16.9003    9.3607   21.0242 HW       229 WAT      0.417000
    688 O          17.5904   15.2633   14.0086 OW       230 WAT     -0.834000
    689 H1         18.4191   15.0277   14.4257 HW       230 WAT      0.417000
    690 H2         17.8383   15.5553   13.1314 HW       230 WAT      0.417000
    691 O          10.6916   12.3578    9.6478 OW       231 WAT     -0.834000
    692 H1         11.2545   11.8367    9.0752 HW       231 WAT      0.417000
    693 H2         10.3546   11.7307   10.2876 HW       231 WAT      0.417000
    694 O           3.2281   17.4591   16.7481 OW       232 WAT     -0.834000
    695 H1          3.1268   17.3427   17.6928 HW       232 WAT      0.417000
    696 H2          2.4654   17.9752   16.4872 HW       232 WAT      0.417000
    697 O           7.7995   25.9081    9.1167 OW       233 WAT     -0.834000
    698 H1          7.2966   26.7058    8.9520 HW       233 WAT      0.417000
    699 H2          8.5572   25.9785    8.5360 HW       233 WAT      0.417000
    700 O          18.2148    3.4442   23.9867 OW       234 WAT     -0.834000
    701 H1         18.9702    3.9925   24.1985 HW       234 WAT      0.417000
    702 H2         18.5663    2.7635   23.4128 HW       234 WAT      0.417000
    703 O          20.9959   12.9008    2.4103 OW       235 WAT     -0.834000
    704 H1         21.0641   13.6172    3.0415 HW       235 WAT      0.417000
    705 H2         21.6720   12.2791    2.6796 HW       235 WAT      0.417000
    706 O          18.5491    4.7877    6.2902 OW       236 WAT     -0.834000
    707 H1         18.6499    3.8550    6.4805 HW       236 WAT      0.417000
    708 H2         18.0125    5.1221    7.0088 HW       236 WAT      0.417000
    709 O          20.8507    9.6249    5.9069 OW       237 WAT     -0.834000
    710 H1         20.9012    8.7190    6.2120 HW       237 WAT      0.417000
    711 H2         20.7663   10.1429    6.7074 HW       237 WAT      0.417000
    712 O          24.2713    0.6590   25.9845 OW       238 WAT     -0.834000
    713 H1         24.4616    0.8735   25.0713 HW       238 WAT      0.417000
    714 H2         23.4848    0.1150   25.9440 HW       238 WAT      0.417000
    715 O           0.2134   11.4707    3.9695 OW       239 WAT     -0.834000
    716 H1          0.8902   10.9969    4.4529 HW       239 WAT      0.417000
    717 H2         -0.4120   11.7453    4.6400 HW       239 WAT      0.417000
    718 O          13.9888    2.3790    9.4347 OW       240 WAT     -0.834000
    719 H1         13.3241    2.9073    9.8766 HW       240 WAT      0.417000
    720 H2         13.8201    2.5129    8.5020 HW       240 WAT      0.417000
    721 O          21.2113   14.6911    6.2141 OW       241 WAT     -0.834000
    722 H1         20.4627   15.2298    6.4704 HW       241 WAT      0.417000
    723 H2         20.8930   13.7909    6.2819 HW       241 WAT      0.417000
    724 O          25.3952    8.3418   13.2562 OW       242 WAT     -0.834000
    725 H1         25.1559    7.7698   12.5269 HW       242 WAT      0.417000
    726 H2         26.3517    8.3131   13.2792 HW       242 WAT      0.417000
    727 O           7.0941   25.6688    5.8433 OW       243 WAT     -0.834000
    728 H1          6.4341   26.3341    6.0380 HW       243 WAT      0.417000
    729 H2          6.6477   24.8362    5.9973 HW       243 WAT      0.417000
    730 O           2.6072    8.7535   13.6066 OW       244 WAT     -0.834000
    731 H1          2.8295    8.7064   14.5365 HW       244 WAT      0.417000
    732 H2          3.0688    9.5296   13.2891 HW       244 WAT      0.417000
    733 O           2.3627   25.2972    2.7182 OW       245 WAT     -0.834000
    734 H1          2.3466   24.3494    2.8513 HW       245 WAT      0.417000
    735 H2          1.5423   25.6069    3.1018 HW       245 WAT      0.417000
    736 O          15.6892    8.1935    8.8736 OW       246 WAT     -0.834000
    737 H1         15.6205    7.7011    9.6916 HW       246 WAT      0.417000
    738 H2         14.9476    8.7982    8.8950 HW       246 WAT      0.417000
    739 O          22.6817   15.6370    3.9686 OW       247 WAT     -0.834000
    740 H1         22.4102   15.2354    4.7940 HW       247 WAT      0.417000
    741 H2         23.6028   15.3937    3.8755 HW       247 WAT      0.417000
    742 O           1.1855   11.2039    6.7765 OW       248 WAT     -0.834000
    743 H1          0.2943   11.5333    6.6601 HW       248 WAT      0.417000
    744 H2          1.1865   10.8207    7.6537 HW       248 WAT      0.417000
    745 O          13.4726    9.3965    9.8032 OW       249 WAT     -0.834000
    746 H1         12.9302   10.1547    9.5858 HW       249 WAT      0.417000
    747 H2         12.9728    8.6451    9.4839 HW       249 WAT      0.417000
    748 O           1.7320   24.7744    5.7542 OW       250 WAT     -0.834000
    749 H1          2.1482   23.9158    5.6780 HW       250 WAT      0.417000
    750 H2          1.8838   25.0343    6.6629 HW       250 WAT      0.417000
    751 O           5.1970    1.3558    9.0060 OW       251 WAT     -0.834000
    752 H1          4.2685    1.1733    9.1505 HW       251 WAT      0.417000
    753 H2          5.2947    1.3608    8.0538 HW       251 WAT      0.417000
    754 O          22.4191   11.0109    4.0063 OW       252 WAT     -0.834000
    755 H1         21.8489   10.6291    4.6736 HW       252 WAT      0.417000
    756 H2         22.9504   10.2772    3.6970 HW       252 WAT      0.417000
    757 O          24.1113    9.0297    3.1853 OW       253 WAT     -0.834000
    758 H1         23.3089    8.7143    2.7696 HW       253 WAT      0.417000
    759 H2         24.6522    9.3385    2.4585 HW       253 WAT      0.417000
    760 O          17.2062    5.2593   -0.0434 OW       254 WAT     -0.834000
    761 H1         16.7116    4.5113   -0.3782 HW       254 WAT      0.417000
    762 H2         16.7377    5.5208    0.7493 HW       254 WAT      0.417000
    763 O          21.3859    2.5090   23.7451 OW       255 WAT     -0.834000
    764 H1         20.5977    2.1400   23.3466 HW       255 WAT      0.417000
    765 H2         21.0586    3.0701   24.4481 HW       255 WAT      0.417000
    766 O           7.6932    9.3519    9.0120 OW       256 WAT     -0.834000
    767 H1          7.0972    8.7203    9.4147 HW       256 WAT      0.417000
    768 H2          7.1823    9.7463    8.3051 HW       256 WAT      0.417000
    769 O          17.7877    8.5606   11.7977 OW       257 WAT     -0.834000
    770 H1         16.9081    8.3813   12.1300 HW       257 WAT      0.417000
    771 H2         18.2757    8.8638   12.5633 HW       257 WAT      0.417000
    772 O          19.2712    7.0018    1.4519 OW       258 WAT     -0.834000
    773 H1         19.3758    6.0851    1.1967 HW       258 WAT      0.417000
    774 H2         18.9996    6.9655    2.3690 HW       258 WAT      0.417000
    775 O           7.9928   13.0505    6.9191 OW       259 WAT     -0.834000
    776 H1          8.2380   13.8479    6.4498 HW       259 WAT      0.417000
    777 H2          7.0360   13.0692    6.9395 HW       259 WAT      0.417000
    778 O          21.1686   11.0618   22.8329 OW       260 WAT     -0.834000
    779 H1         21.8031   11.2142   22.1326 HW       260 WAT      0.417000
    780 H2         21.2867   10.1412   23.0668 HW       260 WAT      0.417000
    781 O          13.8548    5.7847    6.2955 OW       261 WAT     -0.834000
    782 H1         13.9141    4.8481    6.1071 HW       261 WAT      0.417000
    783 H2         14.5882    6.1720    5.8176 HW       261 WAT      0.417000
    784 O          18.1701    8.9566   16.5425 OW       262 WAT     -0.834000
    785 H1         18.9062    8.9718   17.1541 HW       262 WAT      0.417000
    786 H2         18.5456    9.2392   15.7086 HW       262 WAT      0.417000
    787 O          13.9654   11.0500   22.0802 OW       263 WAT     -0.834000
    788 H1         13.2356   10.4724   21.8567 HW       263 WAT      0.417000
    789 H2         14.2682   11.3900   21.2382 HW       263 WAT      0.417000
    790 O          20.5425    7.7660    9.9546 OW       264 WAT     -0.834000
    791 H1         20.8564    6.8669   10.0519 HW       264 WAT      0.417000
    792 H2         20.7331    8.1786   10.7970 HW       264 WAT      0.417000
    793 O          24.2682   13.4045    8.8152 OW       265 WAT     -0.834000
    794 H1         24.2339   14.0164    8.0799 HW       265 WAT      0.417000
    795 H2         23.3558   13.1549    8.9617 HW       265 WAT      0.417000
    796 O           8.7270   12.3784   24.2350 OW       266 WAT     -0.834000
    797 H1          9.3039   12.7038   24.9260 HW       266 WAT      0.417000
    798 H2          8.9413   11.4484   24.1622 HW       266 WAT      0.417000
    799 O          17.0147    8.2340   23.8125 OW       267 WAT     -0.834000
    800 H1         16.3942    8.8040   24.2668 HW       267 WAT      0.417000
    801 H2         17.4779    7.7768   24.5144 HW       267 WAT      0.417000
    802 O           6.6153   15.7253    3.7622 OW       268 WAT     -0.834000
    803 H1          7.2577   16.4316    3.6937 HW       268 WAT      0.417000
    804 H2          7.1192   14.9270    3.6037 HW       268 WAT      0.417000
    805 O          22.0303    8.0119    1.8856 OW       269 WAT     -0.834000
    806 H1         21.1216    7.7315    1.9945 HW       269 WAT      0.417000
    807 H2         22.0698    8.3545    0.9927 HW       269 WAT      0.417000
    808 O          15.3856    2.4896    2.1046 OW       270 WAT     -0.834000
    809 H1         15.1035    2.5411    3.0179 HW       270 WAT      0.417000
    810 H2         15.7579    3.3519    1.9199 HW       270 WAT      0.417000
    811 O          18.7802    6.7721   25.5021 OW       271 WAT     -0.834000
    812 H1         19.7313    6.8781   25.5243 HW       271 WAT      0.417000
    813 H2         18.6041    6.0605   26.1177 HW       271 WAT      0.417000
    814 O           3.4081    4.0694    9.9243 OW       272 WAT     -0.834000
    815 H1          3.4044    4.1333    8.9692 HW       272 WAT      0.417000
    816 H2          3.2405    3.1440   10.1030 HW       272 WAT      0.417000
    817 O           8.8983    9.6818   24.7347 OW       273 WAT     -0.834000
    818 H1          9.2157    9.1902   25.4922 HW       273 WAT      0.417000
    819 H2          7.9466    9.5841   24.7675 HW       273 WAT      0.417000
    820 O          14.7452   17.7098   10.8893 OW       274 WAT     -0.834000
    821 H1         13.9811   18.0213   10.4042 HW       274 WAT      0.417000
    822 H2         14.9039   16.8301   10.5470 HW       274 WAT      0.417000
    823 O           6.2575    9.3579   12.9730 OW       275 WAT     -0.834000
    824 H1          6.2058    9.4247   13.9264 HW       275 WAT      0.417000
    825 H2          7.1267    9.6952   12.7561 HW       275 WAT      0.417000
    826 O          14.6579   24.7489   10.9989 OW       276 WAT     -0.834000
    827 H1         14.9273   24.6663   10.0840 HW       276 WAT      0.417000
    828 H2         13.7126   24.5996   10.9846 HW       276 WAT      0.417000
    829 O          23.9587    8.6278    7.6392 OW       277 WAT     -0.834000
    830 H1         23.8612    8.3668    6.7234 HW       277 WAT      0.417000
    831 H2         24.7737    8.2124    7.9211 HW       277 WAT      0.417000
    832 O           1.9330    9.3749    9.9244 OW       278 WAT     -0.834000
    833 H1          2.0024    8.6193   10.5080 HW       278 WAT      0.417000
    834 H2          2.4863   10.0424   10.3300 HW       278 WAT      0.417000
    835 O          22.7171    2.8414    5.4169 OW       279 WAT     -0.834000
    836 H1         22.5905    2.0381    4.9121 HW       279 WAT      0.417000
    837 H2         22.3153    3.5262    4.8823 HW       279 WAT      0.417000
    838 O           0.7026    7.5229    8.1584 OW       280 WAT     -0.834000
    839 H1          1.3366    8.2401    8.1522 HW       280 WAT      0.417000
    840 H2          1.0973    6.8496    7.6043 HW       280 WAT      0.417000
    841 O          22.2085   10.2276    8.8763 OW       281 WAT     -0.834000
    842 H1         21.9007    9.3757    9.1857 HW       281 WAT      0.417000
    843 H2         22.7659   10.0226    8.1256 HW       281 WAT      0.417000
    844 O           4.2465    6.2070    1.9812 OW       282 WAT     -0.834000
    845 H1          4.4230    5.6034    1.2595 HW       282 WAT      0.417000
    846 H2          4.8816    6.9134    1.8633 HW       282 WAT      0.417000
    847 O          21.6703    2.9206   10.5005 OW       283 WAT     -0.834000
    848 H1         21.2792    2.6121    9.6831 HW       283 WAT      0.417000
    849 H2         21.9385    3.8201   10.3131 HW       283 WAT      0.417000
    850 O           2.1157   13.8368    4.2446 OW       284 WAT     -0.834000
    851 H1          2.9127   14.2665    3.9341 HW       284 WAT      0.417000
    852 H2          2.0617   13.0315    3.7300 HW       284 WAT      0.417000
    853 O          21.9994   22.2047   24.0348 OW       285 WAT     -0.834000
    854 H1         22.2571   21.3618   23.6616 HW       285 WAT      0.417000
    855 H2         22.5751   22.3178   24.7912 HW       285 WAT      0.417000
    856 O          25.5121    9.5476   15.7942 OW       286 WAT     -0.834000
    857 H1         25.4302    9.1386   14.9327 HW       286 WAT      0.417000
    858 H2         26.2506    9.0970   16.2040 HW       286 WAT      0.417000
    859 O          22.6731    6.0306    9.7492 OW       287 WAT     -0.834000
    860 H1         23.1920    6.7699   10.0661 HW       287 WAT      0.417000
    861 H2         22.9185    5.9431    8.8282 HW       287 WAT      0.417000
    862 O          20.6268    6.9543    6.4572 OW       288 WAT     -0.834000
    863 H1         21.5158    6.6233    6.5851 HW       288 WAT      0.417000
    864 H2         20.0609    6.2261    6.7135 HW       288 WAT      0.417000
    865 O          24.9510   10.6477    0.9797 OW       289 WAT     -0.834000
    866 H1         24.8081   11.2034    1.7458 HW       289 WAT      0.417000
    867 H2         25.8819   10.7488    0.7808 HW       289 WAT      0.417000
    868 O          18.1901   16.8860    2.2740 OW       290 WAT     -0.834000
    869 H1         19.1071   16.6782    2.4535 HW       290 WAT      0.417000
    870 H2         17.9117   16.2187    1.6467 HW       290 WAT      0.417000
    871 O          18.1043   24.8137   23.0902 OW       291 WAT     -0.834000
    872 H1         17.3204   24.4986   22.6404 HW       291 WAT      0.417000
    873 H2         18.7498   24.1187   22.9618 HW       291 WAT      0.417000
    874 O           2.8834    0.7920    5.0776 OW       292 WAT     -0.834000
    875 H1          2.5194   -0.0803    5.2286 HW       292 WAT      0.417000
    876 H2          3.1556    0.7823    4.1599 HW       292 WAT      0.417000
    877 O          14.8361   12.5784    8.0091 OW       293 WAT     -0.834000
    878 H1         15.3994   12.2511    7.3078 HW       293 WAT      0.417000
    879 H2         15.2852   12.3244    8.8153 HW       293 WAT      0.417000
    880 O          18.5690    4.8554    3.5980 OW       294 WAT     -0.834000
    881 H1         19.4539    4.6541    3.2936 HW       294 WAT      0.417000
    882 H2         18.5484    4.5385    4.5010 HW       294 WAT      0.417000
    883 O           0.4054   25.0617   15.0602 OW       295 WAT     -0.834000
    884 H1          1.2452   24.7624   14.7117 HW       295 WAT      0.417000
    885 H2         -0.1582   24.2889   15.0239 HW       295 WAT      0.417000
    886 O          14.8723    6.6741   11.1877 OW       296 WAT     -0.834000
    887 H1         13.9932    6.5885   10.8188 HW       296 WAT      0.417000
    888 H2         14.8127    6.2579   12.0477 HW       296 WAT      0.417000
    889 O           0.2105    4.5338    4.1876 OW       297 WAT     -0.834000
    890 H1          0.3932    5.1216    3.4546 HW       297 WAT      0.417000
    891 H2         -0.2847    3.8128    3.7988 HW       297 WAT      0.417000
    892 O          20.1671    0.5431   16.4467 OW       298 WAT     -0.834000
    893 H1         20.4656    1.1350   17.1373 HW       298 WAT      0.417000
    894 H2         20.9658    0.2982   15.9794 HW       298 WAT      0.417000
    895 O          18.5267   12.1025   23.0219 OW       299 WAT     -0.834000
    896 H1         18.7036   13.0424   23.0604 HW       299 WAT      0.417000
    897 H2         19.3799   11.7052   22.8474 HW       299 WAT      0.417000
    898 O           0.5153   20.5076    8.8600 OW       300 WAT     -0.834000
    899 H1         -0.0900   20.8210    9.5321 HW       300 WAT      0.417000
    900 H2          0.8071   19.6539    9.1798 HW       300 WAT      0.417000
    901 O           3.7723    4.0472    7.0944 OW       301 WAT     -0.834000
    902 H1          3.9765    3.1152    7.0172 HW       301 WAT      0.417000
    903 H2          4.2970    4.4647    6.4113 HW       301 WAT      0.417000
    904 O          18.9265   10.0402   14.1299 OW       302 WAT     -0.834000
    905 H1         18.3378   10.7844   14.0041 HW       302 WAT      0.417000
    906 H2         19.7555   10.4340   14.4021 HW       302 WAT      0.417000
    907 O          19.4552   10.2263    0.7242 OW       303 WAT     -0.834000
    908 H1         18.7456    9.6268    0.4931 HW       303 WAT      0.417000
    909 H2         19.7595    9.9193    1.5782 HW       303 WAT      0.417000
    910 O          16.3454    5.5113    2.3622 OW       304 WAT     -0.834000
    911 H1         15.8393    6.1469    2.8682 HW       304 WAT      0.417000
    912 H2         17.1199    5.3406    2.8982 HW       304 WAT      0.417000
    913 O          24.5122    7.1610    5.3304 OW       305 WAT     -0.834000
    914 H1         25.4391    7.0321    5.5317 HW       305 WAT      0.417000
    915 H2         24.5012    7.4215    4.4094 HW       305 WAT      0.417000
    916 O           3.8571   11.8034    6.2551 OW       306 WAT     -0.834000
    917 H1          2.9894   11.5559    6.5746 HW       306 WAT      0.417000
    918 H2          4.4501   11.1676    6.6555 HW       306 WAT      0.417000
    919 O          17.0347   18.8601   17.4243 OW       307 WAT     -0.834000
    920 H1         17.1903   18.0231   17.8618 HW       307 WAT      0.417000
    921 H2         16.9793   18.6379   16.4949 HW       307 WAT      0.417000
    922 O           7.2414   21.6239   15.5835 OW       308 WAT     -0.834000
    923 H1          7.5591   21.1558   16.3556 HW       308 WAT      0.417000
    924 H2          8.0355   21.9288   15.1446 HW       308 WAT      0.417000
    925 O          19.0200   19.7097   22.8549 OW       309 WAT     -0.834000
    926 H1         18.3855   20.1042   22.2564 HW       309 WAT      0.417000
    927 H2         19.4480   19.0291   22.3355 HW       309 WAT      0.417000
    928 O           2.3591   24.3428   19.5992 OW       310 WAT     -0.834000
    929 H1          2.5714   24.9862   20.2754 HW       310 WAT      0.417000
    930 H2          2.0516   24.8659   18.8589 HW       310 WAT      0.417000
    931 O           0.5511   18.1163    5.5141 OW       311 WAT     -0.834000
    932 H1          1.0256   18.2230    6.3386 HW       311 WAT      0.417000
    933 H2          1.2365   17.9923    4.8576 HW       311 WAT      0.417000
    934 O          11.9996    2.4491   20.4039 OW       312 WAT     -0.834000
    935 H1         12.3415    2.9768   21.1256 HW       312 WAT      0.417000
    936 H2         12.6620    2.5246   19.7171 HW       312 WAT      0.417000
    937 O          23.9310   13.7298   23.2481 OW       313 WAT     -0.834000
    938 H1         24.2830   12.9533   22.8129 HW       313 WAT      0.417000
    939 H2         24.3468   14.4655   22.7986 HW       313 WAT      0.417000
    940 O           3.7302   23.7028   17.0220 OW       314 WAT     -0.834000
    941 H1          2.7847   23.5540   17.0250 HW       314 WAT      0.417000
    942 H2          3.9969   23.5670   17.9312 HW       314 WAT      0.417000
    943 O          10.3345   23.3942   27.1767 OW       315 WAT     -0.834000
    944 H1         10.0073   22.5268   27.4150 HW       315 WAT      0.417000
    945 H2          9.5766   23.9709   27.2728 HW       315 WAT      0.417000
    946 O          10.0991   15.8729   15.3258 OW       316 WAT     -0.834000
    947 H1         10.9018   16.3588   15.5149 HW       316 WAT      0.417000
    948 H2         10.2751   15.4343   14.4934 HW       316 WAT      0.417000
    949 O          25.9544   22.2754    2.5021 OW       317 WAT     -0.834000
    950 H1         25.4728   22.5304    3.2890 HW       317 WAT      0.417000
    951 H2         25.3603   21.6851    2.0385 HW       317 WAT      0.417000
    952 O           9.3133   18.7478   15.1861 OW       318 WAT     -0.834000
    953 H1          8.5140   18.6093   14.6780 HW       318 WAT      0.417000
    954 H2          9.7129   17.8800   15.2453 HW       318 WAT      0.417000
    955 O          22.8808   12.3801   11.4623 OW       319 WAT     -0.834000
    956 H1         23.4504   12.8222   12.0918 HW       319 WAT      0.417000
    957 H2         23.3804   11.6120   11.1856 HW       319 WAT      0.417000
    958 O           4.4116   14.1334   24.4677 OW       320 WAT     -0.834000
    959 H1          4.4318   13.5907   23.6795 HW       320 WAT      0.417000
    960 H2          5.3114   14.1156   24.7938 HW       320 WAT      0.417000
    961 O          10.2751   17.3941   11.9363 OW       321 WAT     -0.834000
    962 H1         10.2360   16.4461   12.0627 HW       321 WAT      0.417000
    963 H2          9.3687   17.6862   12.0332 HW       321 WAT      0.417000
    964 O          11.6238   22.1160   22.2384 OW       322 WAT     -0.834000
    965 H1         11.0519   21.3546   22.1405 HW       322 WAT      0.417000
    966 H2         11.8092   22.3933   21.3412 HW       322 WAT      0.417000
    967 O           7.0132   15.6301   23.5595 OW       323 WAT     -0.834000
    968 H1          7.8572   15.3286   23.2236 HW       323 WAT      0.417000
    969 H2          6.3746   15.0270   23.1790 HW       323 WAT      0.417000
    970 O          25.4058   18.4380   13.7916 OW       324 WAT     -0.834000
    971 H1         25.1136   17.5619   14.0431 HW       324 WAT      0.417000
    972 H2         26.1843   18.5936   14.3265 HW       324 WAT      0.417000
    973 O           1.1563   15.0696   20.4748 OW       325 WAT     -0.834000
    974 H1          0.4907   15.3908   21.0832 HW       325 WAT      0.417000
    975 H2          0.7666   14.2872   20.0847 HW       325 WAT      0.417000
    976 O          24.4992   18.3901   20.3296 OW       326 WAT     -0.834000
    977 H1         23.7118   18.9007   20.1410 HW       326 WAT      0.417000
    978 H2         25.1590   19.0440   20.5603 HW       326 WAT      0.417000
    979 O           4.3708   11.5538   27.0989 OW       327 WAT     -0.834000
    980 H1          4.8297   11.7705   26.2873 HW       327 WAT      0.417000
    981 H2          5.0600   11.2514   27.6904 HW       327 WAT      0.417000
    982 O           0.9277    0.6597   22.7748 OW       328 WAT     -0.834000
    983 H1          1.7890    0.3824   22.4624 HW       328 WAT      0.417000
    984 H2          1.0736    0.9125   23.6864 HW       328 WAT      0.417000
    985 O           2.7463    9.8194   16.3748 OW       329 WAT     -0.834000
    986 H1          3.6550    9.9465   16.6476 HW       329 WAT      0.417000
    987 H2          2.4605    9.0392   16.8501 HW       329 WAT      0.417000
    988 O           1.6997   20.9453   24.7604 OW       330 WAT     -0.834000
    989 H1          1.1624   21.2285   24.0205 HW       330 WAT      0.417000
    990 H2          1.1435   21.0835   25.5271 HW       330 WAT      0.417000
    991 O           3.8151   15.6910   14.8399 OW       331 WAT     -0.834000
    992 H1          3.7196   16.3780   15.4996 HW       331 WAT      0.417000
    993 H2          3.0277   15.1553   14.9364 HW       331 WAT      0.417000
    994 O           5.0833   11.3694   17.0820 OW       332 WAT     -0.834000
    995 H1          5.6550   11.0491   17.7797 HW       332 WAT      0.417000
    996 H2          5.6831   11.7126   16.4196 HW       332 WAT      0.417000
    997 O           5.3672   19.0550   16.9777 OW       333 WAT     -0.834000
    998 H1          4.7897   18.3108   16.8079 HW       333 WAT      0.417000
    999 H2          5.9308   18.7623   17.6938 HW       333 WAT      0.417000
   1000 O          12.6596   21.1889    4.1061 OW       334 WAT     -0.834000
   1001 H1         13.5686   21.3984    3.8914 HW       334 WAT      0.417000
   1002 H2         12.2049   22.0304    4.0701 HW       334 WAT      0.417000
   1003 O          13.4048   26.1300   21.9741 OW       335 WAT     -0.834000
   1004 H1         13.9498   25.3450   21.9183 HW       335 WAT      0.417000
   1005 H2         13.0730   26.2548   21.0849 HW       335 WAT      0.417000
   1006 O           1.3285   19.4361   15.9121 OW       336 WAT     -0.834000
   1007 H1          0.9593   19.0420   16.7025 HW       336 WAT      0.417000
   1008 H2          1.4623   20.3553   16.1429 HW       336 WAT      0.417000
   1009 O          23.0282   15.8377    0.2440 OW       337 WAT     -0.834000
   1010 H1         23.3238   14.9990    0.5983 HW       337 WAT      0.417000
   1011 H2         23.7514   16.4398    0.4189 HW       337 WAT      0.417000
   1012 O           7.8421   22.5273   22.7313 OW       338 WAT     -0.834000
   1013 H1          8.6061   22.5866   23.3049 HW       338 WAT      0.417000
   1014 H2          7.9371   23.2649   22.1287 HW       338 WAT      0.417000
   1015 O          13.4875   19.5396   23.9726 OW       339 WAT     -0.834000
   1016 H1         13.1054   18.7018   23.7111 HW       339 WAT      0.417000
   1017 H2         14.4324   19.4047   23.9007 HW       339 WAT      0.417000
   1018 O          14.9536   21.4690   21.5456 OW       340 WAT     -0.834000
   1019 H1         14.5937   20.6257   21.8202 HW       340 WAT      0.417000
   1020 H2         15.0356   21.3962   20.5947 HW       340 WAT      0.417000
   1021 O          15.1842   25.4119   14.4111 OW       341 WAT     -0.834000
   1022 H1         14.4765   24.8034   14.6237 HW       341 WAT      0.417000
   1023 H2         15.8214   24.8806   13.9338 HW       341 WAT      0.417000
   1024 O           5.0511   21.9338   21.7967 OW       342 WAT     -0.834000
   1025 H1          5.6901   21.8852   22.5077 HW       342 WAT      0.417000
   1026 H2          5.5751   21.8639   20.9986 HW       342 WAT      0.417000
   1027 O          10.0718   19.9041   22.0832 OW       343 WAT     -0.834000
   1028 H1         10.1312   19.0446   21.6662 HW       343 WAT      0.417000
   1029 H2          9.2258   19.8951   22.5310 HW       343 WAT      0.417000
   1030 O          12.2725   23.6120   10.8446 OW       344 WAT     -0.834000
   1031 H1         11.7153   23.4784   11.6113 HW       344 WAT      0.417000
   1032 H2         11.6987   23.4387   10.0983 HW       344 WAT      0.417000
   1033 O          17.9751   16.6662   18.8415 OW       345 WAT     -0.834000
   1034 H1         17.4705   15.9626   19.2495 HW       345 WAT      0.417000
   1035 H2         18.7402   16.2276   18.4694 HW       345 WAT      0.417000
   1036 O          23.6819   20.5831    1.2707 OW       346 WAT     -0.834000
   1037 H1         23.8889   19.8748    1.8803 HW       346 WAT      0.417000
   1038 H2         22.7472   20.4798    1.0921 HW       346 WAT      0.417000
   1039 O          24.9691   23.0822   18.5539 OW       347 WAT     -0.834000
   1040 H1         24.8904   23.3534   19.4685 HW       347 WAT      0.417000
   1041 H2         24.8470   23.8889   18.0535 HW       347 WAT      0.417000
   1042 O           8.6286   14.6285   17.2538 OW       348 WAT     -0.834000
   1043 H1          8.9785   14.7273   18.1392 HW       348 WAT      0.417000
   1044 H2          9.2364   15.1185   16.6999 HW       348 WAT      0.417000
   1045 O          10.0054   20.7698    1.1873 OW       349 WAT     -0.834000
   1046 H1          9.7476   20.5910    2.0916 HW       349 WAT      0.417000
   1047 H2          9.3694   20.2893    0.6574 HW       349 WAT      0.417000
   1048 O           8.3124   12.9340   13.6533 OW       350 WAT     -0.834000
   1049 H1          7.4022   13.2298   13.6722 HW       350 WAT      0.417000
   1050 H2          8.4920   12.6544   14.5510 HW       350 WAT      0.417000
   1051 O           8.7377    2.6957   21.0798 OW       351 WAT     -0.834000
   1052 H1          9.2137    2.3646   21.8414 HW       351 WAT      0.417000
   1053 H2          9.2243    2.3583   20.3278 HW       351 WAT      0.417000
   1054 O           1.5879   18.8538    0.6304 OW       352 WAT     -0.834000
   1055 H1          1.4310   19.7905    0.5110 HW       352 WAT      0.417000
   1056 H2          2.3021   18.6516    0.0260 HW       352 WAT      0.417000
   1057 O           3.2727    0.0140   21.7130 OW       353 WAT     -0.834000
   1058 H1          2.9651    0.6564   21.0735 HW       353 WAT      0.417000
   1059 H2          4.2066    0.2006   21.8096 HW       353 WAT      0.417000
   1060 O           9.1474   25.7365    3.8684 OW       354 WAT     -0.834000
   1061 H1          8.5698   25.8559    4.6223 HW       354 WAT      0.417000
   1062 H2          9.1384   24.7931    3.7068 HW       354 WAT      0.417000
   1063 O          15.1617   16.4537   25.6708 OW       355 WAT     -0.834000
   1064 H1         15.4156   15.5419   25.5281 HW       355 WAT      0.417000
   1065 H2         15.7042   16.9519   25.0595 HW       355 WAT      0.417000
   1066 O          13.0985   25.6396   18.1229 OW       356 WAT     -0.834000
   1067 H1         12.2721   25.2865   18.4525 HW       356 WAT      0.417000
   1068 H2         12.8488   26.1612   17.3601 HW       356 WAT      0.417000
   1069 O           6.0533   20.2019   13.5870 OW       357 WAT     -0.834000
   1070 H1          5.0963   20.1905   13.5999 HW       357 WAT      0.417000
   1071 H2          6.2982   20.6621   14.3898 HW       357 WAT      0.417000
   1072 O           6.1125   11.3165    2.0680 OW       358 WAT     -0.834000
   1073 H1          5.2676   11.5080    2.4751 HW       358 WAT      0.417000
   1074 H2          6.7451   11.8185    2.5818 HW       358 WAT      0.417000
   1075 O          13.0017   19.8371    0.7961 OW       359 WAT     -0.834000
   1076 H1         13.0146   20.6197    0.2451 HW       359 WAT      0.417000
   1077 H2         12.5027   20.0975    1.5703 HW       359 WAT      0.417000
   1078 O          17.3101   19.5788    1.8932 OW       360 WAT     -0.834000
   1079 H1         16.5211   19.3889    1.3856 HW       360 WAT      0.417000
   1080 H2         17.6252   18.7204    2.1760 HW       360 WAT      0.417000
   1081 O           5.6152   13.6097   14.2535 OW       361 WAT     -0.834000
   1082 H1          5.5210   14.3179   14.8906 HW       361 WAT      0.417000
   1083 H2          5.4173   14.0180   13.4107 HW       361 WAT      0.417000
   1084 O           5.0209   17.3989   12.3560 OW       362 WAT     -0.834000
   1085 H1          4.6642   18.2189   12.0146 HW       362 WAT      0.417000
   1086 H2          4.7261   17.3700   13.2662 HW       362 WAT      0.417000
   1087 O           5.2264   19.1826   21.0420 OW       363 WAT     -0.834000
   1088 H1          4.8539   20.0339   21.2717 HW       363 WAT      0.417000
   1089 H2          4.4962   18.6975   20.6577 HW       363 WAT      0.417000
   1090 O          10.8433   25.4378   20.1684 OW       364 WAT     -0.834000
   1091 H1         10.0190   25.1972   20.5912 HW       364 WAT      0.417000
   1092 H2         10.6462   26.2520   19.7053 HW       364 WAT      0.417000
   1093 O           0.6078   14.7668    1.1537 OW       365 WAT     -0.834000
   1094 H1          0.9713   14.4031    0.3463 HW       365 WAT      0.417000
   1095 H2          1.1941   14.4539    1.8426 HW       365 WAT      0.417000
   1096 O          25.1309   15.9700   14.8300 OW       366 WAT     -0.834000
   1097 H1         24.5491   15.8828   15.5850 HW       366 WAT      0.417000
   1098 H2         25.8329   15.3405   14.9947 HW       366 WAT      0.417000
   1099 O           7.3004   17.8418   19.4717 OW       367 WAT     -0.834000
   1100 H1          6.8199   18.3790   20.1017 HW       367 WAT      0.417000
   1101 H2          8.0941   18.3434   19.2856 HW       367 WAT      0.417000
   1102 O           1.2350   14.4277    6.8583 OW       368 WAT     -0.834000
   1103 H1          0.3149   14.6172    6.6746 HW       368 WAT      0.417000
   1104 H2          1.4983   13.8231    6.1645 HW       368 WAT      0.417000
   1105 O           9.9708   21.0238   14.1116 OW       369 WAT     -0.834000
   1106 H1         10.8591   21.0102   13.7554 HW       369 WAT      0.417000
   1107 H2          9.8238   20.1307   14.4229 HW       369 WAT      0.417000
   1108 O           1.5596   14.1890   15.7461 OW       370 WAT     -0.834000
   1109 H1          2.1380   13.9573   16.4728 HW       370 WAT      0.417000
   1110 H2          1.4000   13.3607   15.2936 HW       370 WAT      0.417000
   1111 O           1.8326    1.8874    0.3161 OW       371 WAT     -0.834000
   1112 H1          2.2824    2.1930   -0.4716 HW       371 WAT      0.417000
   1113 H2          2.4144    1.2206    0.6808 HW       371 WAT      0.417000
   1114 O           1.6127   12.6199   22.5014 OW       372 WAT     -0.834000
   1115 H1          2.1397   12.1376   21.8644 HW       372 WAT      0.417000
   1116 H2          1.9768   13.5051   22.4923 HW       372 WAT      0.417000
   1117 O          10.6206   23.5163    8.6589 OW       373 WAT     -0.834000
   1118 H1          9.6638   23.5280    8.6314 HW       373 WAT      0.417000
   1119 H2         10.8836   23.3187    7.7600 HW       373 WAT      0.417000
   1120 O           0.3835   21.3534   27.1134 OW       374 WAT     -0.834000
   1121 H1          0.5484   22.2956   27.1505 HW       374 WAT      0.417000
   1122 H2         -0.4751   21.2442   27.5221 HW       374 WAT      0.417000
   1123 O          12.0883   17.2008   23.5218 OW       375 WAT     -0.834000
   1124 H1         12.8169   16.6448   23.2458 HW       375 WAT      0.417000
   1125 H2         11.4072   17.0453   22.8674 HW       375 WAT      0.417000
   1126 O           2.9979   22.3126    2.4934 OW       376 WAT     -0.834000
   1127 H1          3.2275   21.7575    1.7481 HW       376 WAT      0.417000
   1128 H2          2.0504   22.2116    2.5843 HW       376 WAT      0.417000
   1129 O           2.7966   21.4863   19.9642 OW       377 WAT     -0.834000
   1130 H1          3.5126   21.5498   20.5963 HW       377 WAT      0.417000
   1131 H2          2.5300   22.3930   19.8124 HW       377 WAT      0.417000
   1132 O          11.2860   23.3528    2.8723 OW       378 WAT     -0.834000
   1133 H1         10.5240   22.8968    3.2295 HW       378 WAT      0.417000
   1134 H2         11.3067   23.0983    1.9498 HW       378 WAT      0.417000
   1135 O           4.2941   20.8298   25.1522 OW       379 WAT     -0.834000
   1136 H1          3.4030   21.1017   24.9323 HW       379 WAT      0.417000
   1137 H2          4.8080   21.0403   24.3726 HW       379 WAT      0.417000
   1138 O          11.3314   25.6036   23.9441 OW       380 WAT     -0.834000
   1139 H1         11.9966   25.8887   24.5706 HW       380 WAT      0.417000
   1140 H2         11.5691   26.0411   23.1266 HW       380 WAT      0.417000
   1141 O          12.0146    4.8880    0.5578 OW       381 WAT     -0.834000
   1142 H1         12.3843    4.0216    0.3882 HW       381 WAT      0.417000
   1143 H2         12.6079    5.4929    0.1126 HW       381 WAT      0.417000
   1144 O           5.5666   23.1641    3.2111 OW       382 WAT     -0.834000
   1145 H1          4.7717   23.0753    2.6853 HW       382 WAT      0.417000
   1146 H2          5.3689   22.6996    4.0244 HW       382 WAT      0.417000
   1147 O          17.5346   11.8138    7.2606 OW       383 WAT     -0.834000
   1148 H1         18.3628   12.2844    7.3552 HW       383 WAT      0.417000
   1149 H2         17.5618   11.1420    7.9419 HW       383 WAT      0.417000
   1150 O           9.9639   14.6081   25.7308 OW       384 WAT     -0.834000
   1151 H1         10.3896   14.2165   26.4934 HW       384 WAT      0.417000
   1152 H2          9.1442   14.9661   26.0716 HW       384 WAT      0.417000
   1153 O           7.7033   22.2885   25.5260 OW       385 WAT     -0.834000
   1154 H1          8.4250   22.9107   25.4356 HW       385 WAT      0.417000
   1155 H2          7.5306   21.9905   24.6329 HW       385 WAT      0.417000
   1156 O           6.0679   23.1279    6.2523 OW       386 WAT     -0.834000
   1157 H1          5.1159   23.1672    6.1607 HW       386 WAT      0.417000
   1158 H2          6.2747   22.1945    6.2050 HW       386 WAT      0.417000
   1159 O          10.0803   23.5937   16.2240 OW       387 WAT     -0.834000
   1160 H1         10.0086   23.7316   15.2796 HW       387 WAT      0.417000
   1161 H2         10.5539   22.7663   16.3100 HW       387 WAT      0.417000
   1162 O          10.0573   12.0969    5.3728 OW       388 WAT     -0.834000
   1163 H1         10.8086   12.0673    5.9653 HW       388 WAT      0.417000
   1164 H2          9.3940   12.5937    5.8517 HW       388 WAT      0.417000
   1165 O          20.9618   25.0672    2.9635 OW       389 WAT     -0.834000
   1166 H1         21.6903   24.7782    2.4140 HW       389 WAT      0.417000
   1167 H2         20.1979   25.0293    2.3880 HW       389 WAT      0.417000
   1168 O          13.2243    2.2997    0.1758 OW       390 WAT     -0.834000
   1169 H1         14.0589    2.0585    0.5776 HW       390 WAT      0.417000
   1170 H2         12.5917    1.6877    0.5518 HW       390 WAT      0.417000
   1171 O           0.8348    0.9496    8.5806 OW       391 WAT     -0.834000
   1172 H1          0.8252    1.2850    7.6841 HW       391 WAT      0.417000
   1173 H2         -0.0858    0.9401    8.8426 HW       391 WAT      0.417000
   1174 O           3.7130   19.6517   10.9659 OW       392 WAT     -0.834000
   1175 H1          3.9505   20.3090   10.3118 HW       392 WAT      0.417000
   1176 H2          3.5675   20.1537   11.7679 HW       392 WAT      0.417000
   1177 O           4.6136   19.4518    3.8531 OW       393 WAT     -0.834000
   1178 H1          3.9221   18.8689    3.5397 HW       393 WAT      0.417000
   1179 H2          5.3326   19.3249    3.2340 HW       393 WAT      0.417000
   1180 O          12.2125   19.4491   11.8451 OW       394 WAT     -0.834000
   1181 H1         12.3283   19.4332   10.8951 HW       394 WAT      0.417000
   1182 H2         11.6392   18.7050   12.0290 HW       394 WAT      0.417000
   1183 O          11.6322   13.4689    0.1034 OW       395 WAT     -0.834000
   1184 H1         12.1694   14.1757    0.4613 HW       395 WAT      0.417000
   1185 H2         12.2038   12.7013    0.1208 HW       395 WAT      0.417000
   1186 O           5.4588   21.6086    9.7414 OW       396 WAT     -0.834000
   1187 H1          6.0157   22.1447   10.3060 HW       396 WAT      0.417000
   1188 H2          6.0583   20.9776    9.3431 HW       396 WAT      0.417000
   1189 O           8.5053   10.7507   11.9110 OW       397 WAT     -0.834000
   1190 H1          7.8757   10.9139   11.2087 HW       397 WAT      0.417000
   1191 H2          8.7075   11.6195   12.2582 HW       397 WAT      0.417000
   1192 O           3.3501   19.9909   13.9604 OW       398 WAT     -0.834000
   1193 H1          3.3468   20.8837   14.3057 HW       398 WAT      0.417000
   1194 H2          2.7188   19.5210   14.5053 HW       398 WAT      0.417000
   1195 O          23.7529   15.3035    6.9631 OW       399 WAT     -0.834000
   1196 H1         23.7460   16.1319    7.4425 HW       399 WAT      0.417000
   1197 H2         22.8302   15.0582    6.8955 HW       399 WAT      0.417000
   1198 O           4.4183   26.2486   16.8734 OW       400 WAT     -0.834000
   1199 H1          4.4304   25.3400   16.5724 HW       400 WAT      0.417000
   1200 H2          3.4896   26.4784   16.9038 HW       400 WAT      0.417000
   1201 O           5.0634   12.6524   22.3603 OW       401 WAT     -0.834000
   1202 H1          4.4666   12.5199   21.6237 HW       401 WAT      0.417000
   1203 H2          5.9129   12.8215   21.9529 HW       401 WAT      0.417000
   1204 O          17.2420   18.6581   12.2130 OW       402 WAT     -0.834000
   1205 H1         17.6808   19.4850   12.0132 HW       402 WAT      0.417000
   1206 H2         16.4445   18.6762   11.6840 HW       402 WAT      0.417000
   1207 O           1.4650   21.9521   17.3686 OW       403 WAT     -0.834000
   1208 H1          0.5692   22.2443   17.5369 HW       403 WAT      0.417000
   1209 H2          1.7957   21.6868   18.2268 HW       403 WAT      0.417000
   1210 O          13.0327   12.9166    5.5057 OW       404 WAT     -0.834000
   1211 H1         13.8405   12.4034    5.5236 HW       404 WAT      0.417000
   1212 H2         13.3094   13.8066    5.7239 HW       404 WAT      0.417000
   1213 O          18.8540    2.1397    6.1587 OW       405 WAT     -0.834000
   1214 H1         18.5883    1.5392    6.8553 HW       405 WAT      0.417000
   1215 H2         19.3712    1.5995    5.5613 HW       405 WAT      0.417000
   1216 O           3.8379   19.7525    6.7411 OW       406 WAT     -0.834000
   1217 H1          4.0899   19.6634    5.8220 HW       406 WAT      0.417000
   1218 H2          3.8274   18.8554    7.0747 HW       406 WAT      0.417000
   1219 O          14.3725   22.1201    9.6688 OW       407 WAT     -0.834000
   1220 H1         13.6560   22.6360   10.0387 HW       407 WAT      0.417000
   1221 H2         14.9370   21.9237   10.4165 HW       407 WAT      0.417000
   1222 O           3.5032   13.7521   17.6935 OW       408 WAT     -0.834000
   1223 H1          4.0045   12.9649   17.4809 HW       408 WAT      0.417000
   1224 H2          4.1550   14.4527   17.7150 HW       408 WAT      0.417000
   1225 O           3.7773   15.5944    3.0358 OW       409 WAT     -0.834000
   1226 H1          4.6802   15.8171    3.2623 HW       409 WAT      0.417000
   1227 H2          3.8532   15.0623    2.2437 HW       409 WAT      0.417000
   1228 O           4.9215    1.5178   19.0646 OW       410 WAT     -0.834000
   1229 H1          4.8735    0.9649   18.2847 HW       410 WAT      0.417000
   1230 H2          4.5902    2.3682   18.7761 HW       410 WAT      0.417000
   1231 O           3.4909   11.4778   14.0836 OW       411 WAT     -0.834000
   1232 H1          3.9715   12.3045   14.1268 HW       411 WAT      0.417000
   1233 H2          3.5064   11.1446   14.9808 HW       411 WAT      0.417000
   1234 O           8.4192   13.7366    3.4805 OW       412 WAT     -0.834000
   1235 H1          9.1389   14.3661    3.4349 HW       412 WAT      0.417000
   1236 H2          8.8255   12.9311    3.8005 HW       412 WAT      0.417000
   1237 O           6.9290   12.6273    9.9494 OW       413 WAT     -0.834000
   1238 H1          7.1889   13.2820   10.5975 HW       413 WAT      0.417000
   1239 H2          7.3632   12.9037    9.1423 HW       413 WAT      0.417000
   1240 O          25.1794    0.4153    1.1314 OW       414 WAT     -0.834000
   1241 H1         26.0199    0.8194    0.9159 HW       414 WAT      0.417000
   1242 H2         24.6855    0.4380    0.3118 HW       414 WAT      0.417000
   1243 O           9.0307   17.4609    3.0777 OW       415 WAT     -0.834000
   1244 H1          9.9610   17.4481    3.3027 HW       415 WAT      0.417000
   1245 H2          9.0096   17.2911    2.1360 HW       415 WAT      0.417000
   1246 O           9.3788   21.5828   19.4161 OW       416 WAT     -0.834000
   1247 H1          9.3607   20.7637   18.9212 HW       416 WAT      0.417000
   1248 H2          9.1743   21.3242   20.3148 HW       416 WAT      0.417000
   1249 O          12.7940   21.6221   13.6634 OW       417 WAT     -0.834000
   1250 H1         12.5885   21.1214   12.8739 HW       417 WAT      0.417000
   1251 H2         13.6768   21.3400   13.9029 HW       417 WAT      0.417000
   1252 O           5.5648   26.3698    3.3180 OW       418 WAT     -0.834000
   1253 H1          6.0303   25.7068    3.8278 HW       418 WAT      0.417000
   1254 H2          4.7963   25.9130    2.9760 HW       418 WAT      0.417000
   1255 O          10.1730   23.2685   24.0855 OW       419 WAT     -0.834000
   1256 H1         10.6536   22.9153   23.3368 HW       419 WAT      0.417000
   1257 H2         10.5596   24.1317   24.2327 HW       419 WAT      0.417000
   1258 O           3.3753   22.2777    8.3287 OW       420 WAT     -0.834000
   1259 H1          3.2600   21.5070    7.7728 HW       420 WAT      0.417000
   1260 H2          4.1514   22.0808    8.8532 HW       420 WAT      0.417000
   1261 O           3.0685   22.2896    5.3385 OW       421 WAT     -0.834000
   1262 H1          2.9247   22.2604    4.3926 HW       421 WAT      0.417000
   1263 H2          2.6573   21.4905    5.6680 HW       421 WAT      0.417000
   1264 O          15.0753   22.4429    1.5969 OW       422 WAT     -0.834000
   1265 H1         15.6726   22.5239    0.8533 HW       422 WAT      0.417000
   1266 H2         14.2087   22.3567    1.1997 HW       422 WAT      0.417000
   1267 O           2.1924   17.8740    3.3440 OW       423 WAT     -0.834000
   1268 H1          2.7078   17.0732    3.2479 HW       423 WAT      0.417000
   1269 H2          1.9727   18.1266    2.4472 HW       423 WAT      0.417000
   1270 O           9.9708   24.4789   12.9660 OW       424 WAT     -0.834000
   1271 H1         10.5052   25.2642   12.8479 HW       424 WAT      0.417000
   1272 H2          9.0718   24.8051   13.0080 HW       424 WAT      0.417000
   1273 O           9.8758   17.3226   21.3336 OW       425 WAT     -0.834000
   1274 H1         10.0279   16.7952   22.1177 HW       425 WAT      0.417000
   1275 H2          9.5036   16.7087   20.7005 HW       425 WAT      0.417000
   1276 O          11.7084   17.6588   25.9806 OW       426 WAT     -0.834000
   1277 H1         11.6682   17.3342   25.0810 HW       426 WAT      0.417000
   1278 H2         11.9576   18.5788   25.8924 HW       426 WAT      0.417000
   1279 O          10.0829   21.6497   11.1374 OW       427 WAT     -0.834000
   1280 H1         10.9645   21.3224   11.3159 HW       427 WAT      0.417000
   1281 H2          9.5593   21.3437   11.8779 HW       427 WAT      0.417000
   1282 O          13.2237   12.1405    2.4386 OW       428 WAT     -0.834000
   1283 H1         12.9986   11.3987    3.0002 HW       428 WAT      0.417000
   1284 H2         14.1636   12.0468    2.2834 HW       428 WAT      0.417000
   1285 O          22.6139    7.7487   13.5449 OW       429 WAT     -0.834000
   1286 H1         23.5065    8.0861   13.4701 HW       429 WAT      0.417000
   1287 H2         22.1664    8.0805   12.7665 HW       429 WAT      0.417000
   1288 O           8.8121   20.4930    9.0196 OW       430 WAT     -0.834000
   1289 H1          8.9375   20.9208    9.8667 HW       430 WAT      0.417000
   1290 H2          9.0412   21.1638    8.3763 HW       430 WAT      0.417000
   1291 O           6.1050    3.3423   10.4923 OW       431 WAT     -0.834000
   1292 H1          5.8221    2.5186   10.0950 HW       431 WAT      0.417000
   1293 H2          5.3220    3.8928   10.4855 HW       431 WAT      0.417000
   1294 O           8.1170   19.9733    3.3460 OW       432 WAT     -0.834000
   1295 H1          8.2590   19.0270    3.3219 HW       432 WAT      0.417000
   1296 H2          7.5940   20.1169    4.1348 HW       432 WAT      0.417000
   1297 O           4.9623   24.9629   11.1956 OW       433 WAT     -0.834000
   1298 H1          4.9695   24.5183   12.0433 HW       433 WAT      0.417000
   1299 H2          5.8869   25.0569   10.9666 HW       433 WAT      0.417000
   1300 O           6.6610    4.0734   17.9565 OW       434 WAT     -0.834000
   1301 H1          6.9502    4.7025   17.2956 HW       434 WAT      0.417000
   1302 H2          7.2501    3.3265   17.8503 HW       434 WAT      0.417000
   1303 O           5.5744   14.1246    6.0397 OW       435 WAT     -0.834000
   1304 H1          5.7882   14.9414    5.5886 HW       435 WAT      0.417000
   1305 H2          4.8363   13.7653    5.5474 HW       435 WAT      0.417000
   1306 O          11.2236   14.4094    3.6936 OW       436 WAT     -0.834000
   1307 H1         11.6649   14.8509    2.9679 HW       436 WAT      0.417000
   1308 H2         11.8905   13.8307    4.0631 HW       436 WAT      0.417000
   1309 O           2.0958   14.8638   25.9063 OW       437 WAT     -0.834000
   1310 H1          2.7853   14.4917   25.3564 HW       437 WAT      0.417000
   1311 H2          1.7476   15.5930   25.3933 HW       437 WAT      0.417000
   1312 O           9.9113   17.8363    6.6801 OW       438 WAT     -0.834000
   1313 H1          9.5075   17.8966    7.5458 HW       438 WAT      0.417000
   1314 H2         10.0834   16.9023    6.5606 HW       438 WAT      0.417000
   1315 O          11.6351    3.7534   10.8767 OW       439 WAT     -0.834000
   1316 H1         11.7561    3.8437   11.8219 HW       439 WAT      0.417000
   1317 H2         11.0403    3.0095   10.7814 HW       439 WAT      0.417000
   1318 O           5.4458   21.4183   18.3973 OW       440 WAT     -0.834000
   1319 H1          5.5637   20.7859   17.6885 HW       440 WAT      0.417000
   1320 H2          4.5290   21.3213   18.6549 HW       440 WAT      0.417000
   1321 O           5.8253   16.2770    0.1197 OW       441 WAT     -0.834000
   1322 H1          6.6352   15.7675    0.1461 HW       441 WAT      0.417000
   1323 H2          5.1290   15.6202    0.1194 HW       441 WAT      0.417000
   1324 O          10.0925   14.7627   12.8067 OW       442 WAT     -0.834000
   1325 H1         10.6482   14.1958   12.2717 HW       442 WAT      0.417000
   1326 H2          9.4586   14.1677   13.2072 HW       442 WAT      0.417000
   1327 O           8.4203   19.4377   26.5661 OW       443 WAT     -0.834000
   1328 H1          7.9627   18.8452   25.9695 HW       443 WAT      0.417000
   1329 H2          8.3459   20.2980   26.1531 HW       443 WAT      0.417000
   1330 O           5.8174    6.7560    8.6497 OW       444 WAT     -0.834000
   1331 H1          5.2321    7.1349    7.9939 HW       444 WAT      0.417000
   1332 H2          5.6776    7.2893    9.4322 HW       444 WAT      0.417000
   1333 O          17.6584    0.5434    7.8258 OW       445 WAT     -0.834000
   1334 H1         17.0678    0.5448    7.0726 HW       445 WAT      0.417000
   1335 H2         17.8827   -0.3785    7.9526 HW       445 WAT      0.417000
   1336 O           7.7596   18.4706   12.2453 OW       446 WAT     -0.834000
   1337 H1          7.2394   19.2255   12.5205 HW       446 WAT      0.417000
   1338 H2          7.1796   17.7201   12.3742 HW       446 WAT      0.417000
   1339 O          12.5476   26.1659    6.4515 OW       447 WAT     -0.834000
   1340 H1         12.5344   25.9567    5.5175 HW       447 WAT      0.417000
   1341 H2         13.3558   25.7676    6.7747 HW       447 WAT      0.417000
   1342 O           5.9807   17.6643   25.1574 OW       448 WAT     -0.834000
   1343 H1          6.3196   17.0349   24.5208 HW       448 WAT      0.417000
   1344 H2          5.9182   17.1689   25.9740 HW       448 WAT      0.417000
   1345 O           5.9887   18.9640    1.2380 OW       449 WAT     -0.834000
   1346 H1          5.8098   18.0531    1.0047 HW       449 WAT      0.417000
   1347 H2          6.8519   19.1418    0.8645 HW       449 WAT      0.417000
   1348 O          24.6994   14.0300   12.6133 OW       450 WAT     -0.834000
   1349 H1         25.0858   14.4112   11.8249 HW       450 WAT      0.417000
   1350 H2         24.9038   14.6567   13.3073 HW       450 WAT      0.417000
   1351 O           9.2379   16.9986    0.3280 OW       451 WAT     -0.834000
   1352 H1         10.1620   16.8692    0.1148 HW       451 WAT      0.417000
   1353 H2          9.0514   17.8955    0.0506 HW       451 WAT      0.417000
   1354 O           9.5164   19.3467   18.0514 OW       452 WAT     -0.834000
   1355 H1         10.3916   19.0909   18.3427 HW       452 WAT      0.417000
   1356 H2          9.4820   19.0792   17.1330 HW       452 WAT      0.417000
   1357 O          10.3513   20.4609    6.0505 OW       453 WAT     -0.834000
   1358 H1         11.1978   20.5896    5.6225 HW       453 WAT      0.417000
   1359 H2         10.3978   19.5758    6.4120 HW       453 WAT      0.417000
   1360 O           5.4436   14.6973   11.4917 OW       454 WAT     -0.834000
   1361 H1          5.5076   14.4986   10.5575 HW       454 WAT      0.417000
   1362 H2          5.2148   15.6262   11.5238 HW       454 WAT      0.417000
   1363 O          13.0993   15.7779    0.4871 OW       455 WAT     -0.834000
   1364 H1         13.9243   15.7954    0.0020 HW       455 WAT      0.417000
   1365 H2         12.4671   16.1919   -0.1004 HW       455 WAT      0.417000
   1366 O          22.0232    4.9413    3.8912 OW       456 WAT     -0.834000
   1367 H1         21.7475    4.6524    3.0213 HW       456 WAT      0.417000
   1368 H2         22.8013    5.4753    3.7309 HW       456 WAT      0.417000
   1369 O           7.5018    8.7022   16.0510 OW       457 WAT     -0.834000
   1370 H1          7.4700    8.9552   16.9736 HW       457 WAT      0.417000
   1371 H2          8.4358    8.6631   15.8453 HW       457 WAT      0.417000
   1372 O           8.2296   25.7589    1.2348 OW       458 WAT     -0.834000
   1373 H1          7.9282   24.8824    0.9958 HW       458 WAT      0.417000
   1374 H2          8.3035   25.7349    2.1889 HW       458 WAT      0.417000
   1375 O           6.1871   15.6112   17.9679 OW       459 WAT     -0.834000
   1376 H1          7.0067   15.3460   17.5507 HW       459 WAT      0.417000
   1377 H2          6.4586   16.0288   18.7853 HW       459 WAT      0.417000
   1378 O           5.2091    8.7173   10.5603 OW       460 WAT     -0.834000
   1379 H1          4.9800    9.5386   10.1254 HW       460 WAT      0.417000
   1380 H2          5.4661    8.9782   11.4447 HW       460 WAT      0.417000
   1381 O          19.1047    1.2427   22.4301 OW       461 WAT     -0.834000
   1382 H1         19.3322    1.2866   21.5014 HW       461 WAT      0.417000
   1383 H2         18.6536    0.4040   22.5268 HW       461 WAT      0.417000
   1384 O           4.7914    4.6988   14.6557 OW       462 WAT     -0.834000
   1385 H1          4.7262    5.1075   13.7926 HW       462 WAT      0.417000
   1386 H2          5.6345    4.9957   14.9982 HW       462 WAT      0.417000
   1387 O          12.1131   18.6889   18.0795 OW       463 WAT     -0.834000
   1388 H1         12.3740   18.3861   17.2097 HW       463 WAT      0.417000
   1389 H2         12.2291   17.9245   18.6439 HW       463 WAT      0.417000
   1390 O          12.9921   22.3937   27.0590 OW       464 WAT     -0.834000
   1391 H1         13.2568   22.3321   26.1411 HW       464 WAT      0.417000
   1392 H2         12.0858   22.7000   27.0268 HW       464 WAT      0.417000
   1393 O           0.2117    4.1092   20.5235 OW       465 WAT     -0.834000
   1394 H1          0.8832    4.6972   20.8693 HW       465 WAT      0.417000
   1395 H2         -0.2287    4.6212   19.8451 HW       465 WAT      0.417000
   1396 O          10.7828    5.8339   22.0048 OW       466 WAT     -0.834000
   1397 H1         10.5135    5.8988   21.0886 HW       466 WAT      0.417000
   1398 H2         11.3444    5.0594   22.0352 HW       466 WAT      0.417000
   1399 O           3.2020    3.3297   23.9679 OW       467 WAT     -0.834000
   1400 H1          3.6871    3.7240   23.2430 HW       467 WAT      0.417000
   1401 H2          2.3631    3.7906   23.9734 HW       467 WAT      0.417000
   1402 O          23.4047   22.9863   26.4577 OW       468 WAT     -0.834000
   1403 H1         24.0028   23.1430   27.1885 HW       468 WAT      0.417000
   1404 H2         22.7569   22.3736   26.8056 HW       468 WAT      0.417000
   1405 O           7.2764    0.4159   12.3812 OW       469 WAT     -0.834000
   1406 H1          6.9035    0.7567   11.5681 HW       469 WAT      0.417000
   1407 H2          6.8488    0.9225   13.0716 HW       469 WAT      0.417000
   1408 O          24.1043    8.1846   22.5744 OW       470 WAT     -0.834000
   1409 H1         24.3764    9.0946   22.4557 HW       470 WAT      0.417000
   1410 H2         23.1756    8.2397   22.7998 HW       470 WAT      0.417000
   1411 O           9.0387    3.3265   25.6770 OW       471 WAT     -0.834000
   1412 H1          8.1985    3.7780   25.5965 HW       471 WAT      0.417000
   1413 H2          9.0067    2.9128   26.5395 HW       471 WAT      0.417000
   1414 O           4.0996   20.8938    0.4890 OW       472 WAT     -0.834000
   1415 H1          4.1755   21.1811   -0.4209 HW       472 WAT      0.417000
   1416 H2          4.8501   20.3144    0.6206 HW       472 WAT      0.417000
   1417 O           1.0851    5.2941   14.9866 OW       473 WAT     -0.834000
   1418 H1          2.0344    5.3958   14.9177 HW       473 WAT      0.417000
   1419 H2          0.8140    4.9845   14.1224 HW       473 WAT      0.417000
   1420 O          25.1898   13.1984   19.3636 OW       474 WAT     -0.834000
   1421 H1         24.8412   13.8982   18.8113 HW       474 WAT      0.417000
   1422 H2         25.8351   12.7567   18.8117 HW       474 WAT      0.417000
   1423 O           0.3070    8.3287   24.5974 OW       475 WAT     -0.834000
   1424 H1         -0.3496    8.0339   23.9664 HW       475 WAT      0.417000
   1425 H2          0.2356    9.2832   24.5890 HW       475 WAT      0.417000
   1426 O           9.5473    2.0203    0.6147 OW       476 WAT     -0.834000
   1427 H1         10.4061    1.6774    0.8621 HW       476 WAT      0.417000
   1428 H2          8.9578    1.2705    0.6952 HW       476 WAT      0.417000
   1429 O           9.5471    7.7786   26.7839 OW       477 WAT     -0.834000
   1430 H1          9.1380    7.3894   27.5568 HW       477 WAT      0.417000
   1431 H2          9.7592    7.0320   26.2236 HW       477 WAT      0.417000
   1432 O          20.8338    4.0531    1.4983 OW       478 WAT     -0.834000
   1433 H1         21.4892    3.7069    0.8926 HW       478 WAT      0.417000
   1434 H2         20.0216    3.6115    1.2504 HW       478 WAT      0.417000
   1435 O           3.5590   25.5139   26.1634 OW       479 WAT     -0.834000
   1436 H1          4.2600   26.1596   26.0746 HW       479 WAT      0.417000
   1437 H2          3.9396   24.7001   25.8330 HW       479 WAT      0.417000
   1438 O           7.2079   13.7904   27.4292 OW       480 WAT     -0.834000
   1439 H1          7.7887   13.0548   27.6238 HW       480 WAT      0.417000
   1440 H2          6.4586   13.3930   26.9855 HW       480 WAT      0.417000
   1441 O           6.3737    1.1859   21.5173 OW       481 WAT     -0.834000
   1442 H1          6.0005    1.0897   20.6410 HW       481 WAT      0.417000
   1443 H2          7.1720    1.6965   21.3829 HW       481 WAT      0.417000
   1444 O          24.6110    7.6406   10.5868 OW       482 WAT     -0.834000
   1445 H1         25.1747    7.5110    9.8242 HW       482 WAT      0.417000
   1446 H2         24.6866    8.5741   10.7847 HW       482 WAT      0.417000
   1447 O           4.2372    4.0168   18.7715 OW       483 WAT     -0.834000
   1448 H1          3.8510    4.6496   18.1660 HW       483 WAT      0.417000
   1449 H2          5.1803    4.0898   18.6249 HW       483 WAT      0.417000
   1450 O           9.8815    5.6888   24.7379 OW       484 WAT     -0.834000
   1451 H1          9.9442    4.7933   25.0700 HW       484 WAT      0.417000
   1452 H2         10.0803    5.6126   23.8046 HW       484 WAT      0.417000
   1453 O           8.0230   12.1558   16.5449 OW       485 WAT     -0.834000
   1454 H1          8.1981   13.0678   16.7768 HW       485 WAT      0.417000
   1455 H2          8.1209   11.6764   17.3676 HW       485 WAT      0.417000
   1456 O          15.5601    0.3542   17.0926 OW       486 WAT     -0.834000
   1457 H1         14.6783    0.3453   17.4648 HW       486 WAT      0.417000
   1458 H2         15.4379    0.0895   16.1808 HW       486 WAT      0.417000
   1459 O           3.4116   18.3619   25.9988 OW       487 WAT     -0.834000
   1460 H1          4.2216   17.9467   25.7024 HW       487 WAT      0.417000
   1461 H2          3.6128   19.2976   26.0114 HW       487 WAT      0.417000
   1462 O           3.4435    5.8599   16.8940 OW       488 WAT     -0.834000
   1463 H1          3.9212    6.5029   17.4181 HW       488 WAT      0.417000
   1464 H2          3.9744    5.7520   16.1049 HW       488 WAT      0.417000
   1465 O           6.9560    5.3333   25.8281 OW       489 WAT     -0.834000
   1466 H1          6.1614    5.2239   26.3505 HW       489 WAT      0.417000
   1467 H2          7.4021    6.0817   26.2247 HW       489 WAT      0.417000
   1468 O          20.4168    4.1984   25.6072 OW       490 WAT     -0.834000
   1469 H1         21.3043    4.2619   25.9601 HW       490 WAT      0.417000
   1470 H2         19.9748    3.5731   26.1817 HW       490 WAT      0.417000
   1471 O          13.8154   26.1186   25.5464 OW       491 WAT     -0.834000
   1472 H1         14.0518   26.9284   25.0940 HW       491 WAT      0.417000
   1473 H2         14.4761   25.4856   25.2654 HW       491 WAT      0.417000
   1474 O          16.1907    6.6669   16.3757 OW       492 WAT     -0.834000
   1475 H1         16.5989    7.3415   15.8330 HW       492 WAT      0.417000
   1476 H2         15.3067    6.9948   16.5408 HW       492 WAT      0.417000
   1477 O           1.8841    6.1331   21.3336 OW       493 WAT     -0.834000
   1478 H1          2.5220    5.5014   21.6657 HW       493 WAT      0.417000
   1479 H2          2.1659    6.9721   21.6981 HW       493 WAT      0.417000
   1480 O           7.3756    9.5571   21.8476 OW       494 WAT     -0.834000
   1481 H1          7.6306    9.7858   22.7414 HW       494 WAT      0.417000
   1482 H2          7.9959    8.8757   21.5885 HW       494 WAT      0.417000
   1483 O          13.1347    4.4729   21.6229 OW       495 WAT     -0.834000
   1484 H1         13.8388    4.7653   22.2017 HW       495 WAT      0.417000
   1485 H2         13.3349    4.8774   20.7788 HW       495 WAT      0.417000
   1486 O          13.1672    2.4509   24.5527 OW       496 WAT     -0.834000
   1487 H1         13.0731    2.3241   25.4968 HW       496 WAT      0.417000
   1488 H2         13.3739    3.3804   24.4552 HW       496 WAT      0.417000
   1489 O           6.8197   19.5639   23.2635 OW       497 WAT     -0.834000
   1490 H1          6.4821   19.1755   22.4564 HW       497 WAT      0.417000
   1491 H2          6.5210   18.9747   23.9561 HW       497 WAT      0.417000
   1492 O           0.9149   17.3359   24.8680 OW       498 WAT     -0.834000
   1493 H1          1.6906   17.8900   24.7807 HW       498 WAT      0.417000
   1494 H2          0.2346   17.9258   25.1929 HW       498 WAT      0.417000
   1495 O          23.3070    4.7303   19.3093 OW       499 WAT     -0.834000
   1496 H1         23.5663    4.2876   18.5013 HW       499 WAT      0.417000
   1497 H2         22.9826    4.0285   19.8735 HW       499 WAT      0.417000
   1498 O           9.6353    8.6834   13.1874 OW       500 WAT     -0.834000
   1499 H1          9.4087    9.5744   12.9208 HW       500 WAT      0.417000
   1500 H2          8.9251    8.1423   12.8426 HW       500 WAT      0.417000
   1501 O          15.5376    1.7789   21.1800 OW       501 WAT     -0.834000
   1502 H1         15.8597    2.2795   21.9296 HW       501 WAT      0.417000
   1503 H2         14.6097    1.6372   21.3676 HW       501 WAT      0.417000
   1504 O          14.2417    3.2010   18.6165 OW       502 WAT     -0.834000
   1505 H1         15.1612    3.0846   18.8556 HW       502 WAT      0.417000
   1506 H2         14.2156    3.0305   17.6750 HW       502 WAT      0.417000
   1507 O           2.3288    9.8468   19.5349 OW       503 WAT     -0.834000
   1508 H1          1.6371    9.1852   19.5186 HW       503 WAT      0.417000
   1509 H2          3.0214    9.4560   20.0676 HW       503 WAT      0.417000
   1510 O          10.1896    1.5360   11.1689 OW       504 WAT     -0.834000
   1511 H1         10.4552    1.0998   10.3593 HW       504 WAT      0.417000
   1512 H2          9.2338    1.4850   11.1660 HW       504 WAT      0.417000
   1513 O           7.7561   13.5712   21.6656 OW       505 WAT     -0.834000
   1514 H1          8.3783   14.0088   21.0846 HW       505 WAT      0.417000
   1515 H2          8.3015   13.0303   22.2368 HW       505 WAT      0.417000
   1516 O          16.3649   22.6700   26.3739 OW       506 WAT     -0.834000
   1517 H1         16.1197   23.2082   25.6212 HW       506 WAT      0.417000
   1518 H2         17.2973   22.8456   26.5004 HW       506 WAT      0.417000
   1519 O           4.3809    2.6023   26.4652 OW       507 WAT     -0.834000
   1520 H1          4.0768    2.5497   25.5592 HW       507 WAT      0.417000
   1521 H2          4.8830    1.7980   26.5965 HW       507 WAT      0.417000
   1522 O           4.9456    7.7045   18.4424 OW       508 WAT     -0.834000
   1523 H1          4.6696    7.9755   19.3179 HW       508 WAT      0.417000
   1524 H2          5.6341    8.3257   18.2052 HW       508 WAT      0.417000
   1525 O          23.0424    4.6342   26.2138 OW       509 WAT     -0.834000
   1526 H1         23.8665    4.7679   26.6820 HW       509 WAT      0.417000
   1527 H2         23.3076    4.3716   25.3324 HW       509 WAT      0.417000
   1528 O          13.3227    6.7029   16.4236 OW       510 WAT     -0.834000
   1529 H1         12.6892    7.4005   16.2554 HW       510 WAT      0.417000
   1530 H2         13.1990    6.4848   17.3474 HW       510 WAT      0.417000
   1531 O           4.4348    6.2685   12.4454 OW       511 WAT     -0.834000
   1532 H1          4.7943    6.8248   11.7543 HW       511 WAT      0.417000
   1533 H2          3.4860    6.3407   12.3417 HW       511 WAT      0.417000
   1534 O          11.6897   22.9748   19.5936 OW       512 WAT     -0.834000
   1535 H1         10.8628   22.5314   19.4038 HW       512 WAT      0.417000
   1536 H2         11.4327   23.8588   19.8555 HW       512 WAT      0.417000
   1537 O           8.9923    4.9630    0.7792 OW       513 WAT     -0.834000
   1538 H1          9.5989    4.4339    0.2612 HW       513 WAT      0.417000
   1539 H2          8.5779    4.3384    1.3745 HW       513 WAT      0.417000
   1540 O           2.2340    6.1785   25.6811 OW       514 WAT     -0.834000
   1541 H1          1.9879    5.7360   24.8687 HW       514 WAT      0.417000
   1542 H2          1.4760    6.0652   26.2546 HW       514 WAT      0.417000
   1543 O          25.4614    3.6398   27.2311 OW       515 WAT     -0.834000
   1544 H1         26.3421    3.2809   27.3397 HW       515 WAT      0.417000
   1545 H2         24.8843    2.8777   27.2805 HW       515 WAT      0.417000
   1546 O           0.8712    8.1080   27.3709 OW       516 WAT     -0.834000
   1547 H1          0.7053    8.2565   26.4400 HW       516 WAT      0.417000
   1548 H2          1.3825    8.8685   27.6474 HW       516 WAT      0.417000
   1549 O           8.3786    7.3633    1.9922 OW       517 WAT     -0.834000
   1550 H1          8.6459    6.4677    1.7859 HW       517 WAT      0.417000
   1551 H2          9.0198    7.6621    2.6371 HW       517 WAT      0.417000
   1552 O           8.7317    2.1642   17.8575 OW       518 WAT     -0.834000
   1553 H1          8.4933    2.0475   16.9378 HW       518 WAT      0.417000
   1554 H2          8.5674    1.3103   18.2577 HW       518 WAT      0.417000
   1555 O           7.0111    9.6008   18.8420 OW       519 WAT     -0.834000
   1556 H1          7.8740   10.0132   18.8821 HW       519 WAT      0.417000
   1557 H2          6.8650    9.2647   19.7263 HW       519 WAT      0.417000
   1558 O          15.4199   11.6192    5.2855 OW       520 WAT     -0.834000
   1559 H1         16.0646   12.2038    4.8870 HW       520 WAT      0.417000
   1560 H2         15.9421   10.9924    5.7861 HW       520 WAT      0.417000
   1561 O           1.9664   10.8517    0.7611 OW       521 WAT     -0.834000
   1562 H1          2.5797   11.0824    0.0634 HW       521 WAT      0.417000
   1563 H2          2.4502   11.0184    1.5701 HW       521 WAT      0.417000
   1564 O           9.8123   15.3106   23.0443 OW       522 WAT     -0.834000
   1565 H1          9.9295   15.2084   23.9887 HW       522 WAT      0.417000
   1566 H2         10.2809   14.5681   22.6630 HW       522 WAT      0.417000
   1567 O          10.5319    2.4059   23.3576 OW       523 WAT     -0.834000
   1568 H1         11.4698    2.5122   23.5164 HW       523 WAT      0.417000
   1569 H2         10.1201    2.6397   24.1895 HW       523 WAT      0.417000
   1570 O          17.3247    0.6498   27.2910 OW       524 WAT     -0.834000
   1571 H1         17.4157    0.0135   26.5817 HW       524 WAT      0.417000
   1572 H2         16.8602    1.3865   26.8938 HW       524 WAT      0.417000
   1573 O           0.3453    0.6932   11.9009 OW       525 WAT     -0.834000
   1574 H1         -0.5230    0.3587   12.1254 HW       525 WAT      0.417000
   1575 H2          0.6946    0.0545   11.2793 HW       525 WAT      0.417000
   1576 O          12.6963    6.2571    9.4249 OW       526 WAT     -0.834000
   1577 H1         12.1744    5.6074    9.8957 HW       526 WAT      0.417000
   1578 H2         12.7997    5.8906    8.5467 HW       526 WAT      0.417000
   1579 O           2.7396    7.9191   23.3348 OW       527 WAT     -0.834000
   1580 H1          1.8102    8.0741   23.5034 HW       527 WAT      0.417000
   1581 H2          3.1127    7.7392   24.1978 HW       527 WAT      0.417000
   1582 O          15.1721   15.3439    8.9723 OW       528 WAT     -0.834000
   1583 H1         15.1888   14.6194    8.3469 HW       528 WAT      0.417000
   1584 H2         15.8869   15.1528    9.5794 HW       528 WAT      0.417000
   1585 O          14.3608    4.8115   25.3224 OW       529 WAT     -0.834000
   1586 H1         14.2454    5.5905   25.8666 HW       529 WAT      0.417000
   1587 H2         14.8779    5.1150   24.5763 HW       529 WAT      0.417000
   1588 O          10.4522    4.6205   17.9813 OW       530 WAT     -0.834000
   1589 H1         10.3004    3.7557   18.3626 HW       530 WAT      0.417000
   1590 H2         10.6164    4.4480   17.0542 HW       530 WAT      0.417000
   1591 O          10.3068    7.2665   18.2287 OW       531 WAT     -0.834000
   1592 H1         10.3599    7.6215   17.3414 HW       531 WAT      0.417000
   1593 H2         10.2567    6.3186   18.1049 HW       531 WAT      0.417000
   1594 O           7.7449    5.2219   20.5515 OW       532 WAT     -0.834000
   1595 H1          8.2233    4.5383   21.0205 HW       532 WAT      0.417000
   1596 H2          7.6603    4.8859   19.6592 HW       532 WAT      0.417000
   1597 O          12.0413   25.9671    0.3306 OW       533 WAT     -0.834000
   1598 H1         12.6091   25.7269   -0.4016 HW       533 WAT      0.417000
   1599 H2         11.5908   25.1546    0.5610 HW       533 WAT      0.417000
   1600 O          12.9776    8.6763    7.0069 OW       534 WAT     -0.834000
   1601 H1         13.6244    7.9887    7.1655 HW       534 WAT      0.417000
   1602 H2         12.3414    8.2748    6.4151 HW       534 WAT      0.417000
   1603 O          17.1153   13.1739    4.0184 OW       535 WAT     -0.834000
   1604 H1         17.2521   13.1404    3.0716 HW       535 WAT      0.417000
   1605 H2         17.9665   12.9455    4.3917 HW       535 WAT      0.417000
   1606 O          10.6144   10.9379    3.0105 OW       536 WAT     -0.834000
   1607 H1         10.5415   11.3952    3.8482 HW       536 WAT      0.417000
   1608 H2         10.9180   11.6076    2.3977 HW       536 WAT      0.417000
   1609 O           4.0175    7.2325    6.0094 OW       537 WAT     -0.834000
   1610 H1          3.1649    6.8392    5.8234 HW       537 WAT      0.417000
   1611 H2          4.6516    6.6032    5.6658 HW       537 WAT      0.417000
   1612 O          10.3967    8.9535    8.9509 OW       538 WAT     -0.834000
   1613 H1         10.8417    9.3195    8.1866 HW       538 WAT      0.417000
   1614 H2          9.4649    9.0577    8.7583 HW       538 WAT      0.417000
   1615 O           2.3362    9.3142    4.2117 OW       539 WAT     -0.834000
   1616 H1          1.6045    8.7432    3.9777 HW       539 WAT      0.417000
   1617 H2          2.9216    8.7558    4.7234 HW       539 WAT      0.417000
   1618 O           0.1777   14.8839   10.1952 OW       540 WAT     -0.834000
   1619 H1         -0.2405   14.4986    9.4252 HW       540 WAT      0.417000
   1620 H2          1.0082   14.4150   10.2765 HW       540 WAT      0.417000
   1621 O          10.9527    5.9870    3.2435 OW       541 WAT     -0.834000
   1622 H1         11.1035    5.7348    2.3325 HW       541 WAT      0.417000
   1623 H2         11.2504    5.2333    3.7530 HW       541 WAT      0.417000
   1624 O           8.4887   25.8986   24.5273 OW       542 WAT     -0.834000
   1625 H1          9.3625   26.0132   24.9009 HW       542 WAT      0.417000
   1626 H2          8.6358   25.8581   23.5823 HW       542 WAT      0.417000
   1627 O           7.9351    5.3901    7.8995 OW       543 WAT     -0.834000
   1628 H1          7.1976    5.9069    8.2238 HW       543 WAT      0.417000
   1629 H2          7.9669    5.5802    6.9619 HW       543 WAT      0.417000
   1630 O           1.7858    5.8718   11.4725 OW       544 WAT     -0.834000
   1631 H1          2.4309    5.4577   10.8993 HW       544 WAT      0.417000
   1632 H2          1.4169    5.1486   11.9797 HW       544 WAT      0.417000
   1633 O          -0.2647   15.3627    4.1064 OW       545 WAT     -0.834000
   1634 H1          0.5364   14.8796    3.9040 HW       545 WAT      0.417000
   1635 H2          0.0069   16.0187    4.7485 HW       545 WAT      0.417000
   1636 O          11.9787    3.7746    4.2801 OW       546 WAT     -0.834000
   1637 H1         12.4827    3.5851    5.0715 HW       546 WAT      0.417000
   1638 H2         11.6720    2.9186    3.9808 HW       546 WAT      0.417000
   1639 O          12.2803    8.7745   26.0984 OW       547 WAT     -0.834000
   1640 H1         11.4952    8.4861   26.5639 HW       547 WAT      0.417000
   1641 H2         12.0600    8.6742   25.1723 HW       547 WAT      0.417000
   1642 O           2.3780   23.8772   13.5660 OW       548 WAT     -0.834000
   1643 H1          3.2413   23.5847   13.8583 HW       548 WAT      0.417000
   1644 H2          2.2493   23.4402   12.7242 HW       548 WAT      0.417000
   1645 O           7.9056    2.4986    8.8921 OW       549 WAT     -0.834000
   1646 H1          7.3628    3.0183    9.4850 HW       549 WAT      0.417000
   1647 H2          7.9233    3.0035    8.0790 HW       549 WAT      0.417000
   1648 O          10.4895    8.1608   15.6740 OW       550 WAT     -0.834000
   1649 H1         10.0519    8.3300   14.8397 HW       550 WAT      0.417000
   1650 H2         11.3060    8.6574   15.6213 HW       550 WAT      0.417000
   1651 O           4.2019   11.0859    9.8392 OW       551 WAT     -0.834000
   1652 H1          3.6616   11.8100    9.5232 HW       551 WAT      0.417000
   1653 H2          5.0861   11.4497    9.8864 HW       551 WAT      0.417000
   1654 O           6.2200    2.7924    3.6490 OW       552 WAT     -0.834000
   1655 H1          6.0622    1.9444    3.2340 HW       552 WAT      0.417000
   1656 H2          7.1315    2.9959    3.4391 HW       552 WAT      0.417000
   1657 O           8.2231    4.7111   11.9468 OW       553 WAT     -0.834000
   1658 H1          8.4756    5.1815   11.1523 HW       553 WAT      0.417000
   1659 H2          7.4644    4.1893   11.6853 HW       553 WAT      0.417000
   1660 O          13.6894    9.5865    4.4311 OW       554 WAT     -0.834000
   1661 H1         14.5076   10.0705    4.3192 HW       554 WAT      0.417000
   1662 H2         13.6183    9.4516    5.3760 HW       554 WAT      0.417000
   1663 O           5.4360    9.7051    7.0300 OW       555 WAT     -0.834000
   1664 H1          4.8614    8.9950    6.7439 HW       555 WAT      0.417000
   1665 H2          6.0175    9.8576    6.2852 HW       555 WAT      0.417000
   1666 O          11.1560    7.1166    5.7856 OW       556 WAT     -0.834000
   1667 H1         10.7986    6.5514    5.1008 HW       556 WAT      0.417000
   1668 H2         11.1614    6.5683    6.5702 HW       556 WAT      0.417000
   1669 O           6.2798    6.6212   23.2641 OW       557 WAT     -0.834000
   1670 H1          6.3798    6.1358   24.0829 HW       557 WAT      0.417000
   1671 H2          6.9912    6.3028   22.7084 HW       557 WAT      0.417000
   1672 O           5.8078    8.4092    1.4840 OW       558 WAT     -0.834000
   1673 H1          5.9815    9.1184    2.1030 HW       558 WAT      0.417000
   1674 H2          6.6727    8.0553    1.2765 HW       558 WAT      0.417000
   1675 O           9.2391    8.6983    4.2826 OW       559 WAT     -0.834000
   1676 H1          9.7668    9.3356    3.8013 HW       559 WAT      0.417000
   1677 H2          9.7833    8.4532    5.0310 HW       559 WAT      0.417000
   1678 O           7.0362   10.3348    4.9995 OW       560 WAT     -0.834000
   1679 H1          7.7001    9.6771    4.7923 HW       560 WAT      0.417000
   1680 H2          7.5272   11.1518    5.0865 HW       560 WAT      0.417000
   1681 O          10.6750    4.5118    8.1342 OW       561 WAT     -0.834000
   1682 H1          9.7754    4.8126    8.2627 HW       561 WAT      0.417000
   1683 H2         10.9434    4.1856    8.9932 HW       561 WAT      0.417000
   1684 O          17.1093    9.6702    2.8322 OW       562 WAT     -0.834000
   1685 H1         17.4025    9.1804    3.6006 HW       562 WAT      0.417000
   1686 H2         17.0594    9.0156    2.1356 HW       562 WAT      0.417000
   1687 O           1.6012    5.6357    6.3512 OW       563 WAT     -0.834000
   1688 H1          2.2352    5.0325    6.7389 HW       563 WAT      0.417000
   1689 H2          1.4751    5.3103    5.4598 HW       563 WAT      0.417000
   1690 O           4.0679    4.5656   21.5803 OW       564 WAT     -0.834000
   1691 H1          4.8446    5.1022   21.7384 HW       564 WAT      0.417000
   1692 H2          4.2493    4.1196   20.7530 HW       564 WAT      0.417000
   1693 O          13.7770    6.7027   13.8268 OW       565 WAT     -0.834000
   1694 H1         12.8623    6.4973   13.6332 HW       565 WAT      0.417000
   1695 H2         13.8119    6.7636   14.7814 HW       565 WAT      0.417000
   1696 O           8.8755    3.3905    3.3673 OW       566 WAT     -0.834000
   1697 H1          9.4637    2.6803    3.1108 HW       566 WAT      0.417000
   1698 H2          9.4592    4.1121    3.6017 HW       566 WAT      0.417000
   1699 O           9.6564    6.6688   10.3801 OW       567 WAT     -0.834000
   1700 H1         10.3847    7.2862   10.3117 HW       567 WAT      0.417000
   1701 H2          8.9931    7.0137    9.7823 HW       567 WAT      0.417000
   1702 O          15.4596   18.3789    0.3861 OW       568 WAT     -0.834000
   1703 H1         14.6557   18.8984    0.3781 HW       568 WAT      0.417000
   1704 H2         15.2950   17.6732   -0.2394 HW       568 WAT      0.417000
   1705 O           3.8808   11.5925    3.5698 OW       569 WAT     -0.834000
   1706 H1          4.0546   11.8109    4.4854 HW       569 WAT      0.417000
   1707 H2          3.4776   10.7250    3.6029 HW       569 WAT      0.417000
   1708 O           6.0706    1.7915   14.4004 OW       570 WAT     -0.834000
   1709 H1          5.6129    1.4810   15.1816 HW       570 WAT      0.417000
   1710 H2          5.5809    2.5678   14.1287 HW       570 WAT      0.417000
   1711 O           0.7320    2.2458    5.9434 OW       571 WAT     -0.834000
   1712 H1          1.5051    1.8201    5.5729 HW       571 WAT      0.417000
   1713 H2          0.4765    2.8928    5.2858 HW       571 WAT      0.417000
   1714 O          11.1169    1.2815    3.3253 OW       572 WAT     -0.834000
   1715 H1         10.3991    0.6768    3.5136 HW       572 WAT      0.417000
   1716 H2         11.9095    0.7659    3.4738 HW       572 WAT      0.417000
   1717 O           4.4246    5.1921   26.9776 OW       573 WAT     -0.834000
   1718 H1          3.6636    5.5293   26.5050 HW       573 WAT      0.417000
   1719 H2          4.3931    4.2456   26.8381 HW       573 WAT      0.417000
   1720 O          11.2355    8.6183   23.6112 OW       574 WAT     -0.834000
   1721 H1         10.4098    9.0631   23.8027 HW       574 WAT      0.417000
   1722 H2         10.9878    7.7049   23.4674 HW       574 WAT      0.417000
   1723 O           7.6706    6.0019    5.1662 OW       575 WAT     -0.834000
   1724 H1          7.8031    6.5440    4.3886 HW       575 WAT      0.417000
   1725 H2          7.8655    5.1116    4.8736 HW       575 WAT      0.417000
   1726 O          10.0736   15.0808    9.2995 OW       576 WAT     -0.834000
   1727 H1         10.1602   14.2184    9.7056 HW       576 WAT      0.417000
   1728 H2         10.0972   14.9060    8.3587 HW       576 WAT      0.417000
   1729 O           7.6406   19.8334    6.6160 OW       577 WAT     -0.834000
   1730 H1          7.7976   19.7190    7.5532 HW       577 WAT      0.417000
   1731 H2          8.4901   19.6648    6.2084 HW       577 WAT      0.417000
   1732 O          10.7621   15.1874    6.4691 OW       578 WAT     -0.834000
   1733 H1         11.0957   14.5883    5.8013 HW       578 WAT      0.417000
   1734 H2         11.5443   15.6098    6.8241 HW       578 WAT      0.417000
   1735 O          16.4824   24.0375    3.5554 OW       579 WAT     -0.834000
   1736 H1         15.8278   23.5919    3.0176 HW       579 WAT      0.417000
   1737 H2         16.8498   23.3467    4.1068 HW       579 WAT      0.417000
   1738 O          25.2528   10.5829   10.9354 OW       580 WAT     -0.834000
   1739 H1         25.7768   10.9061   11.6683 HW       580 WAT      0.417000
   1740 H2         25.8008   10.7325   10.1649 HW       580 WAT      0.417000
   1741 O          11.5492    0.5888   16.0761 OW       581 WAT     -0.834000
   1742 H1         10.6141    0.4457   16.2222 HW       581 WAT      0.417000
   1743 H2         11.6618    0.4903   15.1306 HW       581 WAT      0.417000
   1744 O           3.0585    2.4364   14.9302 OW       582 WAT     -0.834000
   1745 H1          3.0191    2.2281   13.9968 HW       582 WAT      0.417000
   1746 H2          3.6585    3.1802   14.9845 HW       582 WAT      0.417000
   1747 O          22.9625    5.5260    6.7937 OW       583 WAT     -0.834000
   1748 H1         23.4698    6.1785    6.3108 HW       583 WAT      0.417000
   1749 H2         23.0933    4.7125    6.3065 HW       583 WAT      0.417000
   1750 O           4.7425    5.0112    4.7000 OW       584 WAT     -0.834000
   1751 H1          5.2945    4.2569    4.4937 HW       584 WAT      0.417000
   1752 H2          4.4566    5.3391    3.8473 HW       584 WAT      0.417000
   1753 O           7.8072   23.1023    1.0967 OW       585 WAT     -0.834000
   1754 H1          7.2613   22.6574    0.4484 HW       585 WAT      0.417000
   1755 H2          7.3459   22.9754    1.9258 HW       585 WAT      0.417000
   1756 O          14.0158    6.8533   26.9874 OW       586 WAT     -0.834000
   1757 H1         13.7443    6.9241   27.9026 HW       586 WAT      0.417000
   1758 H2         13.5602    7.5703   26.5463 HW       586 WAT      0.417000
   1759 O          14.9690    9.3270   12.4200 OW       587 WAT     -0.834000
   1760 H1         14.7718    8.8960   11.5883 HW       587 WAT      0.417000
   1761 H2         14.5307    8.7883   13.0787 HW       587 WAT      0.417000
   1762 O           2.6279   13.2162    8.8746 OW       588 WAT     -0.834000
   1763 H1          2.0227   13.5420    8.2084 HW       588 WAT      0.417000
   1764 H2          3.4807   13.5645    8.6144 HW       588 WAT      0.417000
   1765 O          23.3839   12.8109   15.6599 OW       589 WAT     -0.834000
   1766 H1         24.1285   12.6862   15.0714 HW       589 WAT      0.417000
   1767 H2         23.7794   12.9495   16.5205 HW       589 WAT      0.417000
   1768 O           0.4980    1.6631   15.9358 OW       590 WAT     -0.834000
   1769 H1          1.4310    1.7392   15.7356 HW       590 WAT      0.417000
   1770 H2          0.1664    1.0331   15.2959 HW       590 WAT      0.417000
   1771 O           7.8877   23.3799    7.9926 OW       591 WAT     -0.834000
   1772 H1          7.0159   23.2936    7.6070 HW       591 WAT      0.417000
   1773 H2          7.8951   24.2579    8.3739 HW       591 WAT      0.417000
   1774 O          16.8587    5.8548    7.8861 OW       592 WAT     -0.834000
   1775 H1         16.3500    6.6482    8.0535 HW       592 WAT      0.417000
   1776 H2         16.7023    5.3037    8.6530 HW       592 WAT      0.417000
   1777 O           6.2539   12.0043   25.4208 OW       593 WAT     -0.834000
   1778 H1          7.1203   12.2176   25.0741 HW       593 WAT      0.417000
   1779 H2          5.9848   11.2270   24.9314 HW       593 WAT      0.417000
   1780 O          16.9103    8.8979    6.4707 OW       594 WAT     -0.834000
   1781 H1         17.8185    9.1599    6.6213 HW       594 WAT      0.417000
   1782 H2         16.6002    8.6051    7.3277 HW       594 WAT      0.417000
   1783 O          21.2932    9.7455   11.9304 OW       595 WAT     -0.834000
   1784 H1         21.8137   10.5484   11.9041 HW       595 WAT      0.417000
   1785 H2         20.5365    9.9683   12.4726 HW       595 WAT      0.417000
   1786 O          11.7781    9.6770   21.0402 OW       596 WAT     -0.834000
   1787 H1         11.5281    9.2676   21.8685 HW       596 WAT      0.417000
   1788 H2         12.3003    9.0116   20.5921 HW       596 WAT      0.417000
   1789 O           9.3184    4.6627   14.4231 OW       597 WAT     -0.834000
   1790 H1          8.8911    4.4757   13.5873 HW       597 WAT      0.417000
   1791 H2         10.1385    5.0934   14.1818 HW       597 WAT      0.417000
   1792 O           4.6687   22.8231   14.6556 OW       598 WAT     -0.834000
   1793 H1          5.5198   22.4002   14.7689 HW       598 WAT      0.417000
   1794 H2          4.5034   23.2570   15.4927 HW       598 WAT      0.417000
   1795 O          12.0006    3.6053   15.7253 OW       599 WAT     -0.834000
   1796 H1         11.9828    2.7015   16.0400 HW       599 WAT      0.417000
   1797 H2         12.8755    3.7118   15.3520 HW       599 WAT      0.417000
   1798 O          12.1221   11.3875    7.5012 OW       600 WAT     -0.834000
   1799 H1         12.5509   10.5808    7.2156 HW       600 WAT      0.417000
   1800 H2         12.8078   12.0536    7.4521 HW       600 WAT      0.417000
   1801 O           8.6791    1.9097   15.2349 OW       601 WAT     -0.834000
   1802 H1          9.0246    2.7273   14.8765 HW       601 WAT      0.417000
   1803 H2          7.9590    1.6767   14.6488 HW       601 WAT      0.417000
   1804 O          24.2353   12.0595    6.0664 OW       602 WAT     -0.834000
   1805 H1         23.8230   12.0358    6.9299 HW       602 WAT      0.417000
   1806 H2         23.5038   12.0172    5.4505 HW       602 WAT      0.417000
@<TRIPOS>BOND
    1     2     1 1
    2     3     1 1
    3     3     2 1
    4     5     4 1
    5     6     4 1
    6     6     5 1
    7     8     7 1
    8     9     7 1
    9     9     8 1
   10    11    10 1
   11    12    10 1
   12    12    11 1
   13    14    13 1
   14    15    13 1
   15    15    14 1
   16    17    16 1
   17    18    16 1
   18    18    17 1
   19    20    19 1
   20    21    19 1
   21    21    20 1
   22    23    22 1
   23    24    22 1
   24    24    23 1
   25    26    25 1
   26    27    25 1
   27    27    26 1
   28    29    28 1
   29    30    28 1
   30    30    29 1
   31    32    31 1
   32    33    31 1
   33    33    32 1
   34    35    34 1
   35    36    34 1
   36    36    35 1
   37    38    37 1
   38    39    37 1
   39    39    38 1
   40    41    40 1
   41    42    40 1
   42    42    41 1
   43    44    43 1
   44    45    43 1
   45    45    44 1
   46    47    46 1
   47    48    46 1
   48    48    47 1
   49    50    49 1
   50    51    49 1
   51    51    50 1
   52    53    52 1
   53    54    52 1
   54    54    53 1
   55    56    55 1
   56    57    55 1
   57    57    56 1
   58    59    58 1
   59    60    58 1
   60    60    59 1
   61    62    61 1
   62    63    61 1
   63    63    62 1
   64    65    64 1
   65    66    64 1
   66    66    65 1
   67    68    67 1
   68    69    67 1
   69    69    68 1
   70    71    70 1
   71    72    70 1
   72    72    71 1
   73    74    73 1
   74    75    73 1
   75    75    74 1
   76    77    76 1
   77    78    76 1
   78    78    77 1
   79    80    79 1
   80    81    79 1
   81    81    80 1
   82    83    82 1
   83    84    82 1
   84    84    83 1
   85    86    85 1
   86    87    85 1
   87    87    86 1
   88    89    88 1
   89    90    88 1
   90    90    89 1
   91    92    91 1
   92    93    91 1
   93    93    92 1
   94    95    94 1
   95    96    94 1
   96    96    95 1
   97    98    97 1
   98    99    97 1
   99    99    98 1
  100   101   100 1
  101   102   100 1
  102   102   101 1
  103   104   103 1
  104   105   103 1
  105   105   104 1
  106   107   106 1
  107   108   106 1
  108   108   107 1
  109   110   109 1
  110   111   109 1
  111   111   110 1
  112   113   112 1
  113   114   112 1
  114   114   113 1
  115   115   117 1
  116   116   115 1
  117   116   117 1
  118   119   118 1
  119   120   118 1
  120   120   119 1
  121   122   121 1
  122   123   121 1
  123   123   122 1
  124   125   124 1
  125   126   124 1
  126   126   125 1
  127   128   127 1
  128   129   127 1
  129   129   128 1
  130   131   130 1
  131   132   130 1
  132   132   131 1
  133   134   133 1
  134   135   133 1
  135   135   134 1
  136   137   136 1
  137   138   136 1
  138   138   137 1
  139   140   139 1
  140   141   139 1
  141   141   140 1
  142   143   142 1
  143   144   142 1
  144   144   143 1
  145   146   145 1
  146   147   145 1
  147   147   146 1
  148   149   148 1
  149   150   148 1
  150   150   149 1
  151   152   151 1
  152   153   151 1
  153   153   152 1
  154   155   154 1
  155   156   154 1
  156   156   155 1
  157   158   157 1
  158   159   157 1
  159   159   158 1
  160   161   160 1
  161   162   160 1
  162   162   161 1
  163   164   163 1
  164   165   163 1
  165   165   164 1
  166   167   166 1
  167   168   166 1
  168   168   167 1
  169   170   169 1
  170   171   169 1
  171   171   170 1
  172   173   172 1
  173   174   172 1
  174   174   173 1
  175   176   175 1
  176   177   175 1
  177   177   176 1
  178   179   178 1
  179   180   178 1
  180   180   179 1
  181   182   181 1
  182   183   181 1
  183   183   182 1
  184   185   184 1
  185   186   184 1
  186   186   185 1
  187   188   187 1
  188   189   187 1
  189   189   188 1
  190   191   190 1
  191   192   190 1
  192   192   191 1
  193   194   193 1
  194   195   193 1
  195   195   194 1
  196   197   196 1
  197   198   196 1
  198   198   197 1
  199   200   199 1
  200   201   199 1
  201   201   200 1
  202   203   202 1
  203   204   202 1
  204   204   203 1
  205   206   205 1
  206   207   205 1
  207   207   206 1
  208   209   208 1
  209   210   208 1
  210   210   209 1
  211   212   211 1
  212   213   211 1
  213   213   212 1
  214   215   214 1
  215   216   214 1
  216   216   215 1
  217   218   217 1
  218   219   217 1
  219   219   218 1
  220   221   220 1
  221   222   220 1
  222   222   221 1
  223   224   223 1
  224   225   223 1
  225   225   224 1
  226   227   226 1
  227   228   226 1
  228   228   227 1
  229   230   229 1
  230   231   229 1
  231   231   230 1
  232   232   233 1
  233   232   234 1
  234   234   233 1
  235   236   235 1
  236   237   235 1
  237   237   236 1
  238   239   238 1
  239   240   238 1
  240   240   239 1
  241   242   241 1
  242   243   241 1
  243   243   242 1
  244   245   244 1
  245   246   244 1
  246   246   245 1
  247   248   247 1
  248   249   247 1
  249   249   248 1
  250   251   250 1
  251   252   250 1
  252   252   251 1
  253   254   253 1
  254   255   253 1
  255   255   254 1
  256   257   256 1
  257   258   256 1
  258   258   257 1
  259   260   259 1
  260   261   259 1
  261   261   260 1
  262   263   262 1
  263   264   262 1
  264   264   263 1
  265   266   265 1
  266   267   265 1
  267   267   266 1
  268   269   268 1
  269   270   268 1
  270   270   269 1
  271   272   271 1
  272   273   271 1
  273   273   272 1
  274   275   274 1
  275   276   274 1
  276   276   275 1
  277   278   277 1
  278   279   277 1
  279   279   278 1
  280   281   280 1
  281   282   280 1
  282   282   281 1
  283   284   283 1
  284   285   283 1
  285   285   284 1
  286   287   286 1
  287   288   286 1
  288   288   287 1
  289   290   289 1
  290   291   289 1
  291   291   290 1
  292   293   292 1
  293   294   292 1
  294   294   293 1
  295   296   295 1
  296   297   295 1
  297   297   296 1
  298   299   298 1
  299   300   298 1
  300   300   299 1
  301   302   301 1
  302   303   301 1
  303   303   302 1
  304   305   304 1
  305   306   304 1
  306   306   305 1
  307   308   307 1
  308   309   307 1
  309   309   308 1
  310   311   310 1
  311   312   310 1
  312   312   311 1
  313   314   313 1
  314   315   313 1
  315   315   314 1
  316   317   316 1
  317   318   316 1
  318   318   317 1
  319   320   319 1
  320   321   319 1
  321   321   320 1
  322   323   322 1
  323   324   322 1
  324   324   323 1
  325   325   327 1
  326   326   325 1
  327   326   327 1
  328   329   328 1
  329   330   328 1
  330   330   329 1
  331   332   331 1
  332   333   331 1
  333   333   332 1
  334   335   334 1
  335   336   334 1
  336   336   335 1
  337   338   337 1
  338   339   337 1
  339   339   338 1
  340   341   340 1
  341   342   340 1
  342   342   341 1
  343   344   343 1
  344   345   343 1
  345   345   344 1
  346   347   346 1
  347   348   346 1
  348   348   347 1
  349   350   349 1
  350   351   349 1
  351   351   350 1
  352   353   352 1
  353   354   352 1
  354   354   353 1
  355   356   355 1
  356   357   355 1
  357   357   356 1
  358   359   358 1
  359   360   358 1
  360   360   359 1
  361   362   361 1
  362   363   361 1
  363   363   362 1
  364   365   364 1
  365   366   364 1
  366   366   365 1
  367   368   367 1
  368   369   367 1
  369   369   368 1
  370   371   370 1
  371   372   370 1
  372   372   371 1
  373   374   373 1
  374   375   373 1
  375   375   374 1
  376   377   376 1
  377   378   376 1
  378   378   377 1
  379   380   379 1
  380   381   379 1
  381   381   380 1
  382   383   382 1
  383   384   382 1
  384   384   383 1
  385   386   385 1
  386   387   385 1
  387   387   386 1
  388   389   388 1
  389   390   388 1
  390   390   389 1
  391   392   391 1
  392   393   391 1
  393   393   392 1
  394   395   394 1
  395   396   394 1
  396   396   395 1
  397   398   397 1
  398   399   397 1
  399   399   398 1
  400   401   400 1
  401   402   400 1
  402   402   401 1
  403   404   403 1
  404   405   403 1
  405   405   404 1
  406   407   406 1
  407   408   406 1
  408   408   407 1
  409   410   409 1
  410   411   409 1
  411   411   410 1
  412   413   412 1
  413   414   412 1
  414   414   413 1
  415   416   415 1
  416   417   415 1
  417   417   416 1
  418   419   418 1
  419   420   418 1
  420   420   419 1
  421   422   421 1
  422   423   421 1
  423   423   422 1
  424   425   424 1
  425   426   424 1
  426   426   425 1
  427   428   427 1
  428   429   427 1
  429   429   428 1
  430   431   430 1
  431   432   430 1
  432   432   431 1
  433   434   433 1
  434   435   433 1
  435   435   434 1
  436   437   436 1
  437   438   436 1
  438   438   437 1
  439   440   439 1
  440   441   439 1
  441   441   440 1
  442   443   442 1
  443   444   442 1
  444   444   443 1
  445   446   445 1
  446   447   445 1
  447   447   446 1
  448   449   448 1
  449   450   448 1
  450   450   449 1
  451   452   451 1
  452   453   451 1
  453   453   452 1
  454   455   454 1
  455   456   454 1
  456   456   455 1
  457   458   457 1
  458   459   457 1
  459   459   458 1
  460   461   460 1
  461   462   460 1
  462   462   461 1
  463   464   463 1
  464   465   463 1
  465   465   464 1
  466   467   466 1
  467   468   466 1
  468   468   467 1
  469   470   469 1
  470   471   469 1
  471   471   470 1
  472   473   472 1
  473   474   472 1
  474   474   473 1
  475   476   475 1
  476   477   475 1
  477   477   476 1
  478   479   478 1
  479   480   478 1
  480   480   479 1
  481   482   481 1
  482   483   481 1
  483   483   482 1
  484   485   484 1
  485   486   484 1
  486   486   485 1
  487   488   487 1
  488   489   487 1
  489   489   488 1
  490   491   490 1
  491   492   490 1
  492   492   491 1
  493   494   493 1
  494   495   493 1
  495   495   494 1
  496   497   496 1
  497   498   496 1
  498   498   497 1
  499   500   499 1
  500   501   499 1
  501   501   500 1
  502   503   502 1
  503   504   502 1
  504   504   503 1
  505   506   505 1
  506   507   505 1
  507   507   506 1
  508   509   508 1
  509   510   508 1
  510   510   509 1
  511   512   511 1
  512   513   511 1
  513   513   512 1
  514   515   514 1
  515   516   514 1
  516   516   515 1
  517   518   517 1
  518   519   517 1
  519   519   518 1
  520   521   520 1
  521   522   520 1
  522   522   521 1
  523   524   523 1
  524   525   523 1
  525   525   524 1
  526   527   526 1
  527   528   526 1
  528   528   527 1
  529   530   529 1
  530   531   529 1
  531   531   530 1
  532   533   532 1
  533   534   532 1
  534   534   533 1
  535   536   535 1
  536   537   535 1
  537   537   536 1
  538   539   538 1
  539   540   538 1
  540   540   539 1
  541   542   541 1
  542   543   541 1
  543   543   542 1
  544   545   544 1
  545   546   544 1
  546   546   545 1
  547   548   547 1
  548   549   547 1
  549   549   548 1
  550   551   550 1
  551   552   550 1
  552   552   551 1
  553   554   553 1
  554   555   553 1
  555   555   554 1
  556   557   556 1
  557   558   556 1
  558   558   557 1
  559   560   559 1
  560   561   559 1
  561   561   560 1
  562   563   562 1
  563   564   562 1
  564   564   563 1
  565   566   565 1
  566   567   565 1
  567   567   566 1
  568   569   568 1
  569   570   568 1
  570   570   569 1
  571   572   571 1
  572   573   571 1
  573   573   572 1
  574   575   574 1
  575   576   574 1
  576   576   575 1
  577   578   577 1
  578   579   577 1
  579   579   578 1
  580   581   580 1
  581   582   580 1
  582   582   581 1
  583   584   583 1
  584   585   583 1
  585   585   584 1
  586   587   586 1
  587   588   586 1
  588   588   587 1
  589   590   589 1
  590   591   589 1
  591   591   590 1
  592   593   592 1
  593   594   592 1
  594   594   593 1
  595   595   596 1
  596   595   597 1
  597   597   596 1
  598   599   598 1
  599   600   598 1
  600   600   599 1
  601   602   601 1
  602   603   601 1
  603   603   602 1
  604   605   604 1
  605   606   604 1
  606   606   605 1
  607   608   607 1
  608   609   607 1
  609   609   608 1
  610   611   610 1
  611   612   610 1
  612   612   611 1
  613   614   613 1
  614   615   613 1
  615   615   614 1
  616   617   616 1
  617   618   616 1
  618   618   617 1
  619   620   619 1
  620   621   619 1
  621   621   620 1
  622   623   622 1
  623   624   622 1
  624   624   623 1
  625   626   625 1
  626   627   625 1
  627   627   626 1
  628   629   628 1
  629   630   628 1
  630   630   629 1
  631   632   631 1
  632   633   631 1
  633   633   632 1
  634   635   634 1
  635   636   634 1
  636   636   635 1
  637   638   637 1
  638   639   637 1
  639   639   638 1
  640   641   640 1
  641   642   640 1
  642   642   641 1
  643   644   643 1
  644   645   643 1
  645   645   644 1
  646   647   646 1
  647   648   646 1
  648   648   647 1
  649   650   649 1
  650   651   649 1
  651   651   650 1
  652   653   652 1
  653   654   652 1
  654   654   653 1
  655   656   655 1
  656   657   655 1
  657   657   656 1
  658   659   658 1
  659   660   658 1
  660   660   659 1
  661   662   661 1
  662   663   661 1
  663   663   662 1
  664   665   664 1
  665   666   664 1
  666   666   665 1
  667   668   667 1
  668   669   667 1
  669   669   668 1
  670   671   670 1
  671   672   670 1
  672   672   671 1
  673   674   673 1
  674   675   673 1
  675   675   674 1
  676   677   676 1
  677   678   676 1
  678   678   677 1
  679   680   679 1
  680   681   679 1
  681   681   680 1
  682   683   682 1
  683   684   682 1
  684   684   683 1
  685   686   685 1
  686   687   685 1
  687   687   686 1
  688   689   688 1
  689   690   688 1
  690   690   689 1
  691   692   691 1
  692   693   691 1
  693   693   692 1
  694   695   694 1
  695   696   694 1
  696   696   695 1
  697   698   697 1
  698   699   697 1
  699   699   698 1
  700   701   700 1
  701   702   700 1
  702   702   701 1
  703   704   703 1
  704   705   703 1
  705   705   704 1
  706   707   706 1
  707   708   706 1
  708   708   707 1
  709   710   709 1
  710   711   709 1
  711   711   710 1
  712   713   712 1
  713   714   712 1
  714   714   713 1
  715   716   715 1
  716   717   715 1
  717   717   716 1
  718   719   718 1
  719   720   718 1
  720   720   719 1
  721   722   721 1
  722   723   721 1
  723   723   722 1
  724   725   724 1
  725   726   724 1
  726   726   725 1
  727   728   727 1
  728   729   727 1
  729   729   728 1
  730   731   730 1
  731   732   730 1
  732   732   731 1
  733   734   733 1
  734   735   733 1
  735   735   734 1
  736   737   736 1
  737   738   736 1
  738   738   737 1
  739   740   739 1
  740   741   739 1
  741   741   740 1
  742   743   742 1
  743   744   742 1
  744   744   743 1
  745   746   745 1
  746   747   745 1
  747   747   746 1
  748   749   748 1
  749   750   748 1
  750   750   749 1
  751   752   751 1
  752   753   751 1
  753   753   752 1
  754   755   754 1
  755   756   754 1
  756   756   755 1
  757   758   757 1
  758   759   757 1
  759   759   758 1
  760   761   760 1
  761   762   760 1
  762   762   761 1
  763   764   763 1
  764   765   763 1
  765   765   764 1
  766   767   766 1
  767   768   766 1
  768   768   767 1
  769   770   769 1
  770   771   769 1
  771   771   770 1
  772   773   772 1
  773   774   772 1
  774   774   773 1
  775   776   775 1
  776   777   775 1
  777   777   776 1
  778   779   778 1
  779   780   778 1
  780   780   779 1
  781   782   781 1
  782   783   781 1
  783   783   782 1
  784   785   784 1
  785   786   784 1
  786   786   785 1
  787   788   787 1
  788   789   787 1
  789   789   788 1
  790   791   790 1
  791   792   790 1
  792   792   791 1
  793   794   793 1
  794   795   793 1
  795   795   794 1
  796   797   796 1
  797   798   796 1
  798   798   797 1
  799   800   799 1
  800   801   799 1
  801   801   800 1
  802   803   802 1
  803   804   802 1
  804   804   803 1
  805   806   805 1
  806   807   805 1
  807   807   806 1
  808   809   808 1
  809   810   808 1
  810   810   809 1
  811   812   811 1
  812   813   811 1
  813   813   812 1
  814   815   814 1
  815   816   814 1
  816   816   815 1
  817   818   817 1
  818   819   817 1
  819   819   818 1
  820   820   822 1
  821   821   820 1
  822   821   822 1
  823   824   823 1
  824   825   823 1
  825   825   824 1
  826   827   826 1
  827   828   826 1
  828   828   827 1
  829   830   829 1
  830   831   829 1
  831   831   830 1
  832   833   832 1
  833   834   832 1
  834   834   833 1
  835   836   835 1
  836   837   835 1
  837   837   836 1
  838   839   838 1
  839   840   838 1
  840   840   839 1
  841   842   841 1
  842   843   841 1
  843   843   842 1
  844   845   844 1
  845   846   844 1
  846   846   845 1
  847   848   847 1
  848   849   847 1
  849   849   848 1
  850   851   850 1
  851   852   850 1
  852   852   851 1
  853   854   853 1
  854   855   853 1
  855   855   854 1
  856   857   856 1
  857   858   856 1
  858   858   857 1
  859   860   859 1
  860   861   859 1
  861   861   860 1
  862   863   862 1
  863   864   862 1
  864   864   863 1
  865   866   865 1
  866   867   865 1
  867   867   866 1
  868   869   868 1
  869   870   868 1
  870   870   869 1
  871   872   871 1
  872   873   871 1
  873   873   872 1
  874   875   874 1
  875   876   874 1
  876   876   875 1
  877   877   879 1
  878   878   877 1
  879   878   879 1
  880   881   880 1
  881   882   880 1
  882   882   881 1
  883   884   883 1
  884   885   883 1
  885   885   884 1
  886   887   886 1
  887   888   886 1
  888   888   887 1
  889   890   889 1
  890   891   889 1
  891   891   890 1
  892   893   892 1
  893   894   892 1
  894   894   893 1
  895   896   895 1
  896   897   895 1
  897   897   896 1
  898   899   898 1
  899   900   898 1
  900   900   899 1
  901   902   901 1
  902   903   901 1
  903   903   902 1
  904   905   904 1
  905   906   904 1
  906   906   905 1
  907   908   907 1
  908   909   907 1
  909   909   908 1
  910   911   910 1
  911   912   910 1
  912   912   911 1
  913   914   913 1
  914   915   913 1
  915   915   914 1
  916   917   916 1
  917   918   916 1
  918   918   917 1
  919   920   919 1
  920   921   919 1
  921   921   920 1
  922   923   922 1
  923   924   922 1
  924   924   923 1
  925   926   925 1
  926   927   925 1
  927   927   926 1
  928   929   928 1
  929   930   928 1
  930   930   929 1
  931   931   932 1
  932   931   933 1
  933   933   932 1
  934   935   934 1
  935   936   934 1
  936   936   935 1
  937   938   937 1
  938   939   937 1
  939   939   938 1
  940   941   940 1
  941   942   940 1
  942   942   941 1
  943   944   943 1
  944   945   943 1
  945   945   944 1
  946   947   946 1
  947   948   946 1
  948   948   947 1
  949   950   949 1
  950   951   949 1
  951   951   950 1
  952   952   954 1
  953   953   952 1
  954   953   954 1
  955   956   955 1
  956   957   955 1
  957   957   956 1
  958   959   958 1
  959   960   958 1
  960   960   959 1
  961   962   961 1
  962   963   961 1
  963   963   962 1
  964   965   964 1
  965   966   964 1
  966   966   965 1
  967   968   967 1
  968   969   967 1
  969   969   968 1
  970   971   970 1
  971   972   970 1
  972   972   971 1
  973   974   973 1
  974   975   973 1
  975   975   974 1
  976   977   976 1
  977   978   976 1
  978   978   977 1
  979   980   979 1
  980   981   979 1
  981   981   980 1
  982   983   982 1
  983   984   982 1
  984   984   983 1
  985   986   985 1
  986   987   985 1
  987   987   986 1
  988   989   988 1
  989   990   988 1
  990   990   989 1
  991   992   991 1
  992   993   991 1
  993   993   992 1
  994   994   996 1
  995   995   994 1
  996   995   996 1
  997   998   997 1
  998   999   997 1
  999   999   998 1
 1000  1001  1000 1
 1001  1002  1000 1
 1002  1002  1001 1
 1003  1004  1003 1
 1004  1005  1003 1
 1005  1005  1004 1
 1006  1007  1006 1
 1007  1008  1006 1
 1008  1008  1007 1
 1009  1010  1009 1
 1010  1011  1009 1
 1011  1011  1010 1
 1012  1013  1012 1
 1013  1014  1012 1
 1014  1014  1013 1
 1015  1016  1015 1
 1016  1017  1015 1
 1017  1017  1016 1
 1018  1019  1018 1
 1019  1020  1018 1
 1020  1020  1019 1
 1021  1022  1021 1
 1022  1023  1021 1
 1023  1023  1022 1
 1024  1025  1024 1
 1025  1026  1024 1
 1026  1026  1025 1
 1027  1028  1027 1
 1028  1029  1027 1
 1029  1029  1028 1
 1030  1031  1030 1
 1031  1032  1030 1
 1032  1032  1031 1
 1033  1034  1033 1
 1034  1035  1033 1
 1035  1035  1034 1
 1036  1037  1036 1
 1037  1038  1036 1
 1038  1038  1037 1
 1039  1040  1039 1
 1040  1041  1039 1
 1041  1041  1040 1
 1042  1043  1042 1
 1043  1044  1042 1
 1044  1044  1043 1
 1045  1045  1046 1
 1046  1045  1047 1
 1047  1047  1046 1
 1048  1049  1048 1
 1049  1050  1048 1
 1050  1050  1049 1
 1051  1052  1051 1
 1052  1053  1051 1
 1053  1053  1052 1
 1054  1055  1054 1
 1055  1056  1054 1
 1056  1056  1055 1
 1057  1058  1057 1
 1058  1059  1057 1
 1059  1059  1058 1
 1060  1061  1060 1
 1061  1062  1060 1
 1062  1062  1061 1
 1063  1063  1064 1
 1064  1063  1065 1
 1065  1065  1064 1
 1066  1067  1066 1
 1067  1068  1066 1
 1068  1068  1067 1
 1069  1070  1069 1
 1070  1071  1069 1
 1071  1071  1070 1
 1072  1073  1072 1
 1073  1074  1072 1
 1074  1074  1073 1
 1075  1076  1075 1
 1076  1077  1075 1
 1077  1077  1076 1
 1078  1079  1078 1
 1079  1080  1078 1
 1080  1080  1079 1
 1081  1082  1081 1
 1082  1083  1081 1
 1083  1083  1082 1
 1084  1085  1084 1
 1085  1086  1084 1
 1086  1086  1085 1
 1087  1088  1087 1
 1088  1089  1087 1
 1089  1089  1088 1
 1090  1091  1090 1
 1091  1092  1090 1
 1092  1092  1091 1
 1093  1094  1093 1
 1094  1095  1093 1
 1095  1095  1094 1
 1096  1097  1096 1
 1097  1098  1096 1
 1098  1098  1097 1
 1099  1100  1099 1
 1100  1101  1099 1
 1101  1101  1100 1
 1102  1102  1104 1
 1103  1103  1102 1
 1104  1103  1104 1
 1105  1106  1105 1
 1106  1107  1105 1
 1107  1107  1106 1
 1108  1109  1108 1
 1109  1110  1108 1
 1110  1110  1109 1
 1111  1111  1112 1
 1112  1111  1113 1
 1113  1113  1112 1
 1114  1115  1114 1
 1115  1116  1114 1
 1116  1116  1115 1
 1117  1118  1117 1
 1118  1119  1117 1
 1119  1119  1118 1
 1120  1121  1120 1
 1121  1122  1120 1
 1122  1122  1121 1
 1123  1123  1125 1
 1124  1124  1123 1
 1125  1124  1125 1
 1126  1127  1126 1
 1127  1128  1126 1
 1128  1128  1127 1
 1129  1129  1130 1
 1130  1129  1131 1
 1131  1131  1130 1
 1132  1133  1132 1
 1133  1134  1132 1
 1134  1134  1133 1
 1135  1136  1135 1
 1136  1137  1135 1
 1137  1137  1136 1
 1138  1139  1138 1
 1139  1140  1138 1
 1140  1140  1139 1
 1141  1142  1141 1
 1142  1143  1141 1
 1143  1143  1142 1
 1144  1144  1145 1
 1145  1144  1146 1
 1146  1146  1145 1
 1147  1148  1147 1
 1148  1149  1147 1
 1149  1149  1148 1
 1150  1151  1150 1
 1151  1152  1150 1
 1152  1152  1151 1
 1153  1154  1153 1
 1154  1155  1153 1
 1155  1155  1154 1
 1156  1157  1156 1
 1157  1158  1156 1
 1158  1158  1157 1
 1159  1160  1159 1
 1160  1161  1159 1
 1161  1161  1160 1
 1162  1163  1162 1
 1163  1164  1162 1
 1164  1164  1163 1
 1165  1165  1166 1
 1166  1165  1167 1
 1167  1167  1166 1
 1168  1169  1168 1
 1169  1170  1168 1
 1170  1170  1169 1
 1171  1172  1171 1
 1172  1173  1171 1
 1173  1173  1172 1
 1174  1175  1174 1
 1175  1176  1174 1
 1176  1176  1175 1
 1177  1178  1177 1
 1178  1179  1177 1
 1179  1179  1178 1
 1180  1181  1180 1
 1181  1182  1180 1
 1182  1182  1181 1
 1183  1184  1183 1
 1184  1185  1183 1
 1185  1185  1184 1
 1186  1187  1186 1
 1187  1188  1186 1
 1188  1188  1187 1
 1189  1190  1189 1
 1190  1191  1189 1
 1191  1191  1190 1
 1192  1192  1193 1
 1193  1192  1194 1
 1194  1194  1193 1
 1195  1196  1195 1
 1196  1197  1195 1
 1197  1197  1196 1
 1198  1199  1198 1
 1199  1200  1198 1
 1200  1200  1199 1
 1201  1202  1201 1
 1202  1203  1201 1
 1203  1203  1202 1
 1204  1205  1204 1
 1205  1206  1204 1
 1206  1206  1205 1
 1207  1208  1207 1
 1208  1209  1207 1
 1209  1209  1208 1
 1210  1210  1211 1
 1211  1210  1212 1
 1212  1212  1211 1
 1213  1214  1213 1
 1214  1215  1213 1
 1215  1215  1214 1
 1216  1217  1216 1
 1217  1218  1216 1
 1218  1218  1217 1
 1219  1220  1219 1
 1220  1221  1219 1
 1221  1221  1220 1
 1222  1223  1222 1
 1223  1224  1222 1
 1224  1224  1223 1
 1225  1225  1226 1
 1226  1225  1227 1
 1227  1227  1226 1
 1228  1229  1228 1
 1229  1230  1228 1
 1230  1230  1229 1
 1231  1232  1231 1
 1232  1233  1231 1
 1233  1233  1232 1
 1234  1235  1234 1
 1235  1236  1234 1
 1236  1236  1235 1
 1237  1237  1239 1
 1238  1238  1237 1
 1239  1238  1239 1
 1240  1241  1240 1
 1241  1242  1240 1
 1242  1242  1241 1
 1243  1244  1243 1
 1244  1245  1243 1
 1245  1245  1244 1
 1246  1247  1246 1
 1247  1248  1246 1
 1248  1248  1247 1
 1249  1250  1249 1
 1250  1251  1249 1
 1251  1251  1250 1
 1252  1253  1252 1
 1253  1254  1252 1
 1254  1254  1253 1
 1255  1255  1257 1
 1256  1256  1255 1
 1257  1256  1257 1
 1258  1259  1258 1
 1259  1260  1258 1
 1260  1260  1259 1
 1261  1261  1262 1
 1262  1261  1263 1
 1263  1263  1262 1
 1264  1265  1264 1
 1265  1266  1264 1
 1266  1266  1265 1
 1267  1268  1267 1
 1268  1269  1267 1
 1269  1269  1268 1
 1270  1271  1270 1
 1271  1272  1270 1
 1272  1272  1271 1
 1273  1274  1273 1
 1274  1275  1273 1
 1275  1275  1274 1
 1276  1276  1278 1
 1277  1277  1276 1
 1278  1277  1278 1
 1279  1280  1279 1
 1280  1281  1279 1
 1281  1281  1280 1
 1282  1283  1282 1
 1283  1284  1282 1
 1284  1284  1283 1
 1285  1285  1286 1
 1286  1285  1287 1
 1287  1287  1286 1
 1288  1289  1288 1
 1289  1290  1288 1
 1290  1290  1289 1
 1291  1292  1291 1
 1292  1293  1291 1
 1293  1293  1292 1
 1294  1294  1296 1
 1295  1295  1294 1
 1296  1295  1296 1
 1297  1298  1297 1
 1298  1299  1297 1
 1299  1299  1298 1
 1300  1300  1301 1
 1301  1300  1302 1
 1302  1302  1301 1
 1303  1304  1303 1
 1304  1305  1303 1
 1305  1305  1304 1
 1306  1307  1306 1
 1307  1308  1306 1
 1308  1308  1307 1
 1309  1310  1309 1
 1310  1311  1309 1
 1311  1311  1310 1
 1312  1313  1312 1
 1313  1314  1312 1
 1314  1314  1313 1
 1315  1316  1315 1
 1316  1317  1315 1
 1317  1317  1316 1
 1318  1319  1318 1
 1319  1320  1318 1
 1320  1320  1319 1
 1321  1322  1321 1
 1322  1323  1321 1
 1323  1323  1322 1
 1324  1325  1324 1
 1325  1326  1324 1
 1326  1326  1325 1
 1327  1328  1327 1
 1328  1329  1327 1
 1329  1329  1328 1
 1330  1331  1330 1
 1331  1332  1330 1
 1332  1332  1331 1
 1333  1334  1333 1
 1334  1335  1333 1
 1335  1335  1334 1
 1336  1337  1336 1
 1337  1338  1336 1
 1338  1338  1337 1
 1339  1340  1339 1
 1340  1341  1339 1
 1341  1341  1340 1
 1342  1343  1342 1
 1343  1344  1342 1
 1344  1344  1343 1
 1345  1346  1345 1
 1346  1347  1345 1
 1347  1347  1346 1
 1348  1348  1350 1
 1349  1349  1348 1
 1350  1349  1350 1
 1351  1352  1351 1
 1352  1353  1351 1
 1353  1353  1352 1
 1354  1355  1354 1
 1355  1356  1354 1
 1356  1356  1355 1
 1357  1358  1357 1
 1358  1359  1357 1
 1359  1359  1358 1
 1360  1361  1360 1
 1361  1362  1360 1
 1362  1362  1361 1
 1363  1364  1363 1
 1364  1365  1363 1
 1365  1365  1364 1
 1366  1367  1366 1
 1367  1368  1366 1
 1368  1368  1367 1
 1369  1370  1369 1
 1370  1371  1369 1
 1371  1371  1370 1
 1372  1373  1372 1
 1373  1374  1372 1
 1374  1374  1373 1
 1375  1375  1376 1
 1376  1375  1377 1
 1377  1377  1376 1
 1378  1379  1378 1
 1379  1380  1378 1
 1380  1380  1379 1
 1381  1382  1381 1
 1382  1383  1381 1
 1383  1383  1382 1
 1384  1385  1384 1
 1385  1386  1384 1
 1386  1386  1385 1
 1387  1388  1387 1
 1388  1389  1387 1
 1389  1389  1388 1
 1390  1390  1392 1
 1391  1391  1390 1
 1392  1391  1392 1
 1393  1394  1393 1
 1394  1395  1393 1
 1395  1395  1394 1
 1396  1397  1396 1
 1397  1398  1396 1
 1398  1398  1397 1
 1399  1400  1399 1
 1400  1401  1399 1
 1401  1401  1400 1
 1402  1402  1403 1
 1403  1402  1404 1
 1404  1404  1403 1
 1405  1406  1405 1
 1406  1407  1405 1
 1407  1407  1406 1
 1408  1409  1408 1
 1409  1410  1408 1
 1410  1410  1409 1
 1411  1412  1411 1
 1412  1413  1411 1
 1413  1413  1412 1
 1414  1415  1414 1
 1415  1416  1414 1
 1416  1416  1415 1
 1417  1418  1417 1
 1418  1419  1417 1
 1419  1419  1418 1
 1420  1420  1421 1
 1421  1420  1422 1
 1422  1422  1421 1
 1423  1424  1423 1
 1424  1425  1423 1
 1425  1425  1424 1
 1426  1426  1428 1
 1427  1427  1426 1
 1428  1427  1428 1
 1429  1430  1429 1
 1430  1431  1429 1
 1431  1431  1430 1
 1432  1433  1432 1
 1433  1434  1432 1
 1434  1434  1433 1
 1435  1436  1435 1
 1436  1437  1435 1
 1437  1437  1436 1
 1438  1439  1438 1
 1439  1440  1438 1
 1440  1440  1439 1
 1441  1442  1441 1
 1442  1443  1441 1
 1443  1443  1442 1
 1444  1444  1445 1
 1445  1444  1446 1
 1446  1446  1445 1
 1447  1448  1447 1
 1448  1449  1447 1
 1449  1449  1448 1
 1450  1451  1450 1
 1451  1452  1450 1
 1452  1452  1451 1
 1453  1454  1453 1
 1454  1455  1453 1
 1455  1455  1454 1
 1456  1457  1456 1
 1457  1458  1456 1
 1458  1458  1457 1
 1459  1460  1459 1
 1460  1461  1459 1
 1461  1461  1460 1
 1462  1463  1462 1
 1463  1464  1462 1
 1464  1464  1463 1
 1465  1466  1465 1
 1466  1467  1465 1
 1467  1467  1466 1
 1468  1469  1468 1
 1469  1470  1468 1
 1470  1470  1469 1
 1471  1472  1471 1
 1472  1473  1471 1
 1473  1473  1472 1
 1474  1474  1475 1
 1475  1474  1476 1
 1476  1476  1475 1
 1477  1478  1477 1
 1478  1479  1477 1
 1479  1479  1478 1
 1480  1481  1480 1
 1481  1482  1480 1
 1482  1482  1481 1
 1483  1484  1483 1
 1484  1485  1483 1
 1485  1485  1484 1
 1486  1487  1486 1
 1487  1488  1486 1
 1488  1488  1487 1
 1489  1490  1489 1
 1490  1491  1489 1
 1491  1491  1490 1
 1492  1493  1492 1
 1493  1494  1492 1
 1494  1494  1493 1
 1495  1496  1495 1
 1496  1497  1495 1
 1497  1497  1496 1
 1498  1499  1498 1
 1499  1500  1498 1
 1500  1500  1499 1
 1501  1502  1501 1
 1502  1503  1501 1
 1503  1503  1502 1
 1504  1505  1504 1
 1505  1506  1504 1
 1506  1506  1505 1
 1507  1508  1507 1
 1508  1509  1507 1
 1509  1509  1508 1
 1510  1510  1512 1
 1511  1511  1510 1
 1512  1511  1512 1
 1513  1514  1513 1
 1514  1515  1513 1
 1515  1515  1514 1
 1516  1517  1516 1
 1517  1518  1516 1
 1518  1518  1517 1
 1519  1519  1520 1
 1520  1519  1521 1
 1521  1521  1520 1
 1522  1523  1522 1
 1523  1524  1522 1
 1524  1524  1523 1
 1525  1526  1525 1
 1526  1527  1525 1
 1527  1527  1526 1
 1528  1529  1528 1
 1529  1530  1528 1
 1530  1530  1529 1
 1531  1532  1531 1
 1532  1533  1531 1
 1533  1533  1532 1
 1534  1534  1535 1
 1535  1534  1536 1
 1536  1536  1535 1
 1537  1538  1537 1
 1538  1539  1537 1
 1539  1539  1538 1
 1540  1541  1540 1
 1541  1542  1540 1
 1542  1542  1541 1
 1543  1544  1543 1
 1544  1545  1543 1
 1545  1545  1544 1
 1546  1547  1546 1
 1547  1548  1546 1
 1548  1548  1547 1
 1549  1550  1549 1
 1550  1551  1549 1
 1551  1551  1550 1
 1552  1553  1552 1
 1553  1554  1552 1
 1554  1554  1553 1
 1555  1556  1555 1
 1556  1557  1555 1
 1557  1557  1556 1
 1558  1559  1558 1
 1559  1560  1558 1
 1560  1560  1559 1
 1561  1562  1561 1
 1562  1563  1561 1
 1563  1563  1562 1
 1564  1565  1564 1
 1565  1566  1564 1
 1566  1566  1565 1
 1567  1568  1567 1
 1568  1569  1567 1
 1569  1569  1568 1
 1570  1571  1570 1
 1571  1572  1570 1
 1572  1572  1571 1
 1573  1574  1573 1
 1574  1575  1573 1
 1575  1575  1574 1
 1576  1577  1576 1
 1577  1578  1576 1
 1578  1578  1577 1
 1579  1579  1580 1
 1580  1579  1581 1
 1581  1581  1580 1
 1582  1583  1582 1
 1583  1584  1582 1
 1584  1584  1583 1
 1585  1586  1585 1
 1586  1587  1585 1
 1587  1587  1586 1
 1588  1589  1588 1
 1589  1590  1588 1
 1590  1590  1589 1
 1591  1591  1592 1
 1592  1591  1593 1
 1593  1593  1592 1
 1594  1595  1594 1
 1595  1596  1594 1
 1596  1596  1595 1
 1597  1598  1597 1
 1598  1599  1597 1
 1599  1599  1598 1
 1600  1601  1600 1
 1601  1602  1600 1
 1602  1602  1601 1
 1603  1604  1603 1
 1604  1605  1603 1
 1605  1605  1604 1
 1606  1607  1606 1
 1607  1608  1606 1
 1608  1608  1607 1
 1609  1609  1611 1
 1610  1610  1609 1
 1611  1610  1611 1
 1612  1613  1612 1
 1613  1614  1612 1
 1614  1614  1613 1
 1615  1616  1615 1
 1616  1617  1615 1
 1617  1617  1616 1
 1618  1619  1618 1
 1619  1620  1618 1
 1620  1620  1619 1
 1621  1622  1621 1
 1622  1623  1621 1
 1623  1623  1622 1
 1624  1625  1624 1
 1625  1626  1624 1
 1626  1626  1625 1
 1627  1628  1627 1
 1628  1629  1627 1
 1629  1629  1628 1
 1630  1631  1630 1
 1631  1632  1630 1
 1632  1632  1631 1
 1633  1634  1633 1
 1634  1635  1633 1
 1635  1635  1634 1
 1636  1637  1636 1
 1637  1638  1636 1
 1638  1638  1637 1
 1639  1640  1639 1
 1640  1641  1639 1
 1641  1641  1640 1
 1642  1643  1642 1
 1643  1644  1642 1
 1644  1644  1643 1
 1645  1646  1645 1
 1646  1647  1645 1
 1647  1647  1646 1
 1648  1649  1648 1
 1649  1650  1648 1
 1650  1650  1649 1
 1651  1651  1653 1
 1652  1652  1651 1
 1653  1652  1653 1
 1654  1655  1654 1
 1655  1656  1654 1
 1656  1656  1655 1
 1657  1658  1657 1
 1658  1659  1657 1
 1659  1659  1658 1
 1660  1660  1661 1
 1661  1660  1662 1
 1662  1662  1661 1
 1663  1664  1663 1
 1664  1665  1663 1
 1665  1665  1664 1
 1666  1667  1666 1
 1667  1668  1666 1
 1668  1668  1667 1
 1669  1670  1669 1
 1670  1671  1669 1
 1671  1671  1670 1
 1672  1673  1672 1
 1673  1674  1672 1
 1674  1674  1673 1
 1675  1676  1675 1
 1676  1677  1675 1
 1677  1677  1676 1
 1678  1679  1678 1
 1679  1680  1678 1
 1680  1680  1679 1
 1681  1682  1681 1
 1682  1683  1681 1
 1683  1683  1682 1
 1684  1685  1684 1
 1685  1686  1684 1
 1686  1686  1685 1
 1687  1688  1687 1
 1688  1689  1687 1
 1689  1689  1688 1
 1690  1691  1690 1
 1691  1692  1690 1
 1692  1692  1691 1
 1693  1694  1693 1
 1694  1695  1693 1
 1695  1695  1694 1
 1696  1697  1696 1
 1697  1698  1696 1
 1698  1698  1697 1
 1699  1700  1699 1
 1700  1701  1699 1
 1701  1701  1700 1
 1702  1702  1704 1
 1703  1703  1702 1
 1704  1703  1704 1
 1705  1706  1705 1
 1706  1707  1705 1
 1707  1707  1706 1
 1708  1709  1708 1
 1709  1710  1708 1
 1710  1710  1709 1
 1711  1712  1711 1
 1712  1713  1711 1
 1713  1713  1712 1
 1714  1715  1714 1
 1715  1716  1714 1
 1716  1716  1715 1
 1717  1718  1717 1
 1718  1719  1717 1
 1719  1719  1718 1
 1720  1721  1720 1
 1721  1722  1720 1
 1722  1722  1721 1
 1723  1724  1723 1
 1724  1725  1723 1
 1725  1725  1724 1
 1726  1727  1726 1
 1727  1728  1726 1
 1728  1728  1727 1
 1729  1729  1731 1
 1730  1730  1729 1
 1731  1730  1731 1
 1732  1733  1732 1
 1733  1734  1732 1
 1734  1734  1733 1
 1735  1736  1735 1
 1736  1737  1735 1
 1737  1737  1736 1
 1738  1739  1738 1
 1739  1740  1738 1
 1740  1740  1739 1
 1741  1742  1741 1
 1742  1743  1741 1
 1743  1743  1742 1
 1744  1745  1744 1
 1745  1746  1744 1
 1746  1746  1745 1
 1747  1748  1747 1
 1748  1749  1747 1
 1749  1749  1748 1
 1750  1750  1751 1
 1751  1750  1752 1
 1752  1752  1751 1
 1753  1754  1753 1
 1754  1755  1753 1
 1755  1755  1754 1
 1756  1757  1756 1
 1757  1758  1756 1
 1758  1758  1757 1
 1759  1759  1761 1
 1760  1760  1759 1
 1761  1760  1761 1
 1762  1763  1762 1
 1763  1764  1762 1
 1764  1764  1763 1
 1765  1766  1765 1
 1766  1767  1765 1
 1767  1767  1766 1
 1768  1769  1768 1
 1769  1770  1768 1
 1770  1770  1769 1
 1771  1772  1771 1
 1772  1773  1771 1
 1773  1773  1772 1
 1774  1775  1774 1
 1775  1776  1774 1
 1776  1776  1775 1
 1777  1778  1777 1
 1778  1779  1777 1
 1779  1779  1778 1
 1780  1780  1782 1
 1781  1781  1780 1
 1782  1781  1782 1
 1783  1784  1783 1
 1784  1785  1783 1
 1785  1785  1784 1
 1786  1787  1786 1
 1787  1788  1786 1
 1788  1788  1787 1
 1789  1790  1789 1
 1790  1791  1789 1
 1791  1791  1790 1
 1792  1793  1792 1
 1793  1794  1792 1
 1794  1794  1793 1
 1795  1796  1795 1
 1796  1797  1795 1
 1797  1797  1796 1
 1798  1799  1798 1
 1799  1800  1798 1
 1800  1800  1799 1
 1801  1802  1801 1
 1802  1803  1801 1
 1803  1803  1802 1
 1804  1805  1804 1
 1805  1806  1804 1
 1806  1806  1805 1
@<TRIPOS>SUBSTRUCTURE
      1 WAT               1 ****               0 ****  **** 
      2 WAT               4 ****               0 ****  **** 
      3 WAT               7 ****               0 ****  **** 
      4 WAT              10 ****               0 ****  **** 
      5 WAT              13 ****               0 ****  **** 
      6 WAT              16 ****               0 ****  **** 
      7 WAT              19 ****               0 ****  **** 
      8 WAT              22 ****               0 ****  **** 
      9 WAT              25 ****               0 ****  **** 
     10 WAT              28 ****               0 ****  **** 
     11 WAT              31 ****               0 ****  **** 
     12 WAT              34 ****               0 ****  **** 
     13 WAT              37 ****               0 ****  **** 
     14 WAT              40 ****               0 ****  **** 
     15 WAT              43 ****               0 ****  **** 
     16 WAT              46 ****               0 ****  **** 
     17 WAT              49 ****               0 ****  **** 
     18 WAT              52 ****               0 ****  **** 
     19 WAT              55 ****               0 ****  **** 
     20 WAT              58 ****               0 ****  **** 
     21 WAT              61 ****               0 ****  **** 
     22 WAT              64 ****               0 ****  **** 
     23 WAT              67 ****               0 ****  **** 
     24 WAT              70 ****               0 ****  **** 
     25 WAT              73 ****               0 ****  **** 
     26 WAT              76 ****               0 ****  **** 
     27 WAT              79 ****               0 ****  **** 
     28 WAT              82 ****               0 ****  **** 
     29 WAT              85 ****               0 ****  **** 
     30 WAT              88 ****               0 ****  **** 
     31 WAT              91 ****               0 ****  **** 
     32 WAT              94 ****               0 ****  **** 
     33 WAT              97 ****               0 ****  **** 
     34 WAT             100 ****               0 ****  **** 
     35 WAT             103 ****               0 ****  **** 
     36 WAT             106 ****               0 ****  **** 
     37 WAT             109 ****               0 ****  **** 
     38 WAT             112 ****               0 ****  **** 
     39 WAT             115 ****               0 ****  **** 
     40 WAT             118 ****               0 ****  **** 
     41 WAT             121 ****               0 ****  **** 
     42 WAT             124 ****               0 ****  **** 
     43 WAT             127 ****               0 ****  **** 
     44 WAT             130 ****               0 ****  **** 
     45 WAT             133 ****               0 ****  **** 
     46 WAT             136 ****               0 ****  **** 
     47 WAT             139 ****               0 ****  **** 
     48 WAT             142 ****               0 ****  **** 
     49 WAT             145 ****               0 ****  **** 
     50 WAT             148 ****               0 ****  **** 
     51 WAT             151 ****               0 ****  **** 
     52 WAT             154 ****               0 ****  **** 
     53 WAT             157 ****               0 ****  **** 
     54 WAT             160 ****               0 ****  **** 
     55 WAT             163 ****               0 ****  **** 
     56 WAT             166 ****               0 ****  **** 
     57 WAT             169 ****               0 ****  **** 
     58 WAT             172 ****               0 ****  **** 
     59 WAT             175 ****               0 ****  **** 
     60 WAT             178 ****               0 ****  **** 
     61 WAT             181 ****               0 ****  **** 
     62 WAT             184 ****               0 ****  **** 
     63 WAT             187 ****               0 ****  **** 
     64 WAT             190 ****               0 ****  **** 
     65 WAT             193 ****               0 ****  **** 
     66 WAT             196 ****               0 ****  **** 
     67 WAT             199 ****               0 ****  **** 
     68 WAT             202 ****               0 ****  **** 
     69 WAT             205 ****               0 ****  **** 
     70 WAT             208 ****               0 ****  **** 
     71 WAT             211 ****               0 ****  **** 
     72 WAT             214 ****               0 ****  **** 
     73 WAT             217 ****               0 ****  **** 
     74 WAT             220 ****               0 ****  **** 
     75 WAT             223 ****               0 ****  **** 
     76 WAT             226 ****               0 ****  **** 
     77 WAT             229 ****               0 ****  **** 
     78 WAT             232 ****               0 ****  **** 
     79 WAT             235 ****               0 ****  **** 
     80 WAT             238 ****               0 ****  **** 
     81 WAT             241 ****               0 ****  **** 
     82 WAT             244 ****               0 ****  **** 
     83 WAT             247 ****               0 ****  **** 
     84 WAT             250 ****               0 ****  **** 
     85 WAT             253 ****               0 ****  **** 
     86 WAT             256 ****               0 ****  **** 
     87 WAT             259 ****               0 ****  **** 
     88 WAT             262 ****               0 ****  **** 
     89 WAT             265 ****               0 ****  **** 
     90 WAT             268 ****               0 ****  **** 
     91 WAT             271 ****               0 ****  **** 
     92 WAT             274 ****               0 ****  **** 
     93 WAT             277 ****               0 ****  **** 
     94 WAT             280 ****               0 ****  **** 
     95 WAT             283 ****               0 ****  **** 
     96 WAT             286 ****               0 ****  **** 
     97 WAT             289 ****               0 ****  **** 
     98 WAT             292 ****               0 ****  **** 
     99 WAT             295 ****               0 ****  **** 
    100 WAT             298 ****               0 ****  **** 
    101 WAT             301 ****               0 ****  **** 
    102 WAT             304 ****               0 ****  **** 
    103 WAT             307 ****               0 ****  **** 
    104 WAT             310 ****               0 ****  **** 
    105 WAT             313 ****               0 ****  **** 
    106 WAT             316 ****               0 ****  **** 
    107 WAT             319 ****               0 ****  **** 
    108 WAT             322 ****               0 ****  **** 
    109 WAT             325 ****               0 ****  **** 
    110 WAT             328 ****               0 ****  **** 
    111 WAT             331 ****               0 ****  **** 
    112 WAT             334 ****               0 ****  **** 
    113 WAT             337 ****               0 ****  **** 
    114 WAT             340 ****               0 ****  **** 
    115 WAT             343 ****               0 ****  **** 
    116 WAT             346 ****               0 ****  **** 
    117 WAT             349 ****               0 ****  **** 
    118 WAT             352 ****               0 ****  **** 
    119 WAT             355 ****               0 ****  **** 
    120 WAT             358 ****               0 ****  **** 
    121 WAT             361 ****               0 ****  **** 
    122 WAT             364 ****               0 ****  **** 
    123 WAT             367 ****               0 ****  **** 
    124 WAT             370 ****               0 ****  **** 
    125 WAT             373 ****               0 ****  **** 
    126 WAT             376 ****               0 ****  **** 
    127 WAT             379 ****               0 ****  **** 
    128 WAT             382 ****               0 ****  **** 
    129 WAT             385 ****               0 ****  **** 
    130 WAT             388 ****               0 ****  **** 
    131 WAT             391 ****               0 ****  **** 
    132 WAT             394 ****               0 ****  **** 
    133 WAT             397 ****               0 ****  **** 
    134 WAT             400 ****               0 ****  **** 
    135 WAT             403 ****               0 ****  **** 
    136 WAT             406 ****               0 ****  **** 
    137 WAT             409 ****               0 ****  **** 
    138 WAT             412 ****               0 ****  **** 
    139 WAT             415 ****               0 ****  **** 
    140 WAT             418 ****               0 ****  **** 
    141 WAT             421 ****               0 ****  **** 
    142 WAT             424 ****               0 ****  **** 
    143 WAT             427 ****               0 ****  **** 
    144 WAT             430 ****               0 ****  **** 
    145 WAT             433 ****               0 ****  **** 
    146 WAT             436 ****               0 ****  **** 
    147 WAT             439 ****               0 ****  **** 
    148 WAT             442 ****               0 ****  **** 
    149 WAT             445 ****               0 ****  **** 
    150 WAT             448 ****               0 ****  **** 
    151 WAT             451 ****               0 ****  **** 
    152 WAT             454 ****               0 ****  **** 
    153 WAT             457 ****               0 ****  **** 
    154 WAT             460 ****               0 ****  **** 
    155 WAT             463 ****               0 ****  **** 
    156 WAT             466 ****               0 ****  **** 
    157 WAT             469 ****               0 ****  **** 
    158 WAT             472 ****               0 ****  **** 
    159 WAT             475 ****               0 ****  **** 
    160 WAT             478 ****               0 ****  **** 
    161 WAT             481 ****               0 ****  **** 
    162 WAT             484 ****               0 ****  **** 
    163 WAT             487 ****               0 ****  **** 
    164 WAT             490 ****               0 ****  **** 
    165 WAT             493 ****               0 ****  **** 
    166 WAT             496 ****               0 ****  **** 
    167 WAT             499 ****               0 ****  **** 
    168 WAT             502 ****               0 ****  **** 
    169 WAT             505 ****               0 ****  **** 
    170 WAT             508 ****               0 ****  **** 
    171 WAT             511 ****               0 ****  **** 
    172 WAT             514 ****               0 ****  **** 
    173 WAT             517 ****               0 ****  **** 
    174 WAT             520 ****               0 ****  **** 
    175 WAT             523 ****               0 ****  **** 
    176 WAT             526 ****               0 ****  **** 
    177 WAT             529 ****               0 ****  **** 
    178 WAT             532 ****               0 ****  **** 
    179 WAT             535 ****               0 ****  **** 
    180 WAT             538 ****               0 ****  **** 
    181 WAT             541 ****               0 ****  **** 
    182 WAT             544 ****               0 ****  **** 
    183 WAT             547 ****               0 ****  **** 
    184 WAT             550 ****               0 ****  **** 
    185 WAT             553 ****               0 ****  **** 
    186 WAT             556 ****               0 ****  **** 
    187 WAT             559 ****               0 ****  **** 
    188 WAT             562 ****               0 ****  **** 
    189 WAT             565 ****               0 ****  **** 
    190 WAT             568 ****               0 ****  **** 
    191 WAT             571 ****               0 ****  **** 
    192 WAT             574 ****               0 ****  **** 
    193 WAT             577 ****               0 ****  **** 
    194 WAT             580 ****               0 ****  **** 
    195 WAT             583 ****               0 ****  **** 
    196 WAT             586 ****               0 ****  **** 
    197 WAT             589 ****               0 ****  **** 
    198 WAT             592 ****               0 ****  **** 
    199 WAT             595 ****               0 ****  **** 
    200 WAT             598 ****               0 ****  **** 
    201 WAT             601 ****               0 ****  **** 
    202 WAT             604 ****               0 ****  **** 
    203 WAT             607 ****               0 ****  **** 
    204 WAT             610 ****               0 ****  **** 
    205 WAT             613 ****               0 ****  **** 
    206 WAT             616 ****               0 ****  **** 
    207 WAT             619 ****               0 ****  **** 
    208 WAT             622 ****               0 ****  **** 
    209 WAT             625 ****               0 ****  **** 
    210 WAT             628 ****               0 ****  **** 
    211 WAT             631 ****               0 ****  **** 
    212 WAT             634 ****               0 ****  **** 
    213 WAT             637 ****               0 ****  **** 
    214 WAT             640 ****               0 ****  **** 
    215 WAT             643 ****               0 ****  **** 
    216 WAT             646 ****               0 ****  **** 
    217 WAT             649 ****               0 ****  **** 
    218 WAT             652 ****               0 ****  **** 
    219 WAT             655 ****               0 ****  **** 
    220 WAT             658 ****               0 ****  **** 
    221 WAT             661 ****               0 ****  **** 
    222 WAT             664 ****               0 ****  **** 
    223 WAT             667 ****               0 ****  **** 
    224 WAT             670 ****               0 ****  **** 
    225 WAT             673 ****               0 ****  **** 
    226 WAT             676 ****               0 ****  **** 
    227 WAT             679 ****               0 ****  **** 
    228 WAT             682 ****               0 ****  **** 
    229 WAT             685 ****               0 ****  **** 
    230 WAT             688 ****               0 ****  **** 
    231 WAT             691 ****               0 ****  **** 
    232 WAT             694 ****               0 ****  **** 
    233 WAT             697 ****               0 ****  **** 
    234 WAT             700 ****               0 ****  **** 
    235 WAT             703 ****               0 ****  **** 
    236 WAT             706 ****               0 ****  **** 
    237 WAT             709 ****               0 ****  **** 
    238 WAT             712 ****               0 ****  **** 
    239 WAT             715 ****               0 ****  **** 
    240 WAT             718 ****               0 ****  **** 
    241 WAT             721 ****               0 ****  **** 
    242 WAT             724 ****               0 ****  **** 
    243 WAT             727 ****               0 ****  **** 
    244 WAT             730 ****               0 ****  **** 
    245 WAT             733 ****               0 ****  **** 
    246 WAT             736 ****               0 ****  **** 
    247 WAT             739 ****               0 ****  **** 
    248 WAT             742 ****               0 ****  **** 
    249 WAT             745 ****               0 ****  **** 
    250 WAT             748 ****               0 ****  **** 
    251 WAT             751 ****               0 ****  **** 
    252 WAT             754 ****               0 ****  **** 
    253 WAT             757 ****               0 ****  **** 
    254 WAT             760 ****               0 ****  **** 
    255 WAT             763 ****               0 ****  **** 
    256 WAT             766 ****               0 ****  **** 
    257 WAT             769 ****               0 ****  **** 
    258 WAT             772 ****               0 ****  **** 
    259 WAT             775 ****               0 ****  **** 
    260 WAT             778 ****               0 ****  **** 
    261 WAT             781 ****               0 ****  **** 
    262 WAT             784 ****               0 ****  **** 
    263 WAT             787 ****               0 ****  **** 
    264 WAT             790 ****               0 ****  **** 
    265 WAT             793 ****               0 ****  **** 
    266 WAT             796 ****               0 ****  **** 
    267 WAT             799 ****               0 ****  **** 
    268 WAT             802 ****               0 ****  **** 
    269 WAT             805 ****               0 ****  **** 
    270 WAT             808 ****               0 ****  **** 
    271 WAT             811 ****               0 ****  **** 
    272 WAT             814 ****               0 ****  **** 
    273 WAT             817 ****               0 ****  **** 
    274 WAT             820 ****               0 ****  **** 
    275 WAT             823 ****               0 ****  **** 
    276 WAT             826 ****               0 ****  **** 
    277 WAT             829 ****               0 ****  **** 
    278 WAT             832 ****               0 ****  **** 
    279 WAT             835 ****               0 ****  **** 
    280 WAT             838 ****               0 ****  **** 
    281 WAT             841 ****               0 ****  **** 
    282 WAT             844 ****               0 ****  **** 
    283 WAT             847 ****               0 ****  **** 
    284 WAT             850 ****               0 ****  **** 
    285 WAT             853 ****               0 ****  **** 
    286 WAT             856 ****               0 ****  **** 
    287 WAT             859 ****               0 ****  **** 
    288 WAT             862 ****               0 ****  **** 
    289 WAT             865 ****               0 ****  **** 
    290 WAT             868 ****               0 ****  **** 
    291 WAT             871 ****               0 ****  **** 
    292 WAT             874 ****               0 ****  **** 
    293 WAT             877 ****               0 ****  **** 
    294 WAT             880 ****               0 ****  **** 
    295 WAT             883 ****               0 ****  **** 
    296 WAT             886 ****               0 ****  **** 
    297 WAT             889 ****               0 ****  **** 
    298 WAT             892 ****               0 ****  **** 
    299 WAT             895 ****               0 ****  **** 
    300 WAT             898 ****               0 ****  **** 
    301 WAT             901 ****               0 ****  **** 
    302 WAT             904 ****               0 ****  **** 
    303 WAT             907 ****               0 ****  **** 
    304 WAT             910 ****               0 ****  **** 
    305 WAT             913 ****               0 ****  **** 
    306 WAT             916 ****               0 ****  **** 
    307 WAT             919 ****               0 ****  **** 
    308 WAT             922 ****               0 ****  **** 
    309 WAT             925 ****               0 ****  **** 
    310 WAT             928 ****               0 ****  **** 
    311 WAT             931 ****               0 ****  **** 
    312 WAT             934 ****               0 ****  **** 
    313 WAT             937 ****               0 ****  **** 
    314 WAT             940 ****               0 ****  **** 
    315 WAT             943 ****               0 ****  **** 
    316 WAT             946 ****               0 ****  **** 
    317 WAT             949 ****               0 ****  **** 
    318 WAT             952 ****               0 ****  **** 
    319 WAT             955 ****               0 ****  **** 
    320 WAT             958 ****               0 ****  **** 
    321 WAT             961 ****               0 ****  **** 
    322 WAT             964 ****               0 ****  **** 
    323 WAT             967 ****               0 ****  **** 
    324 WAT             970 ****               0 ****  **** 
    325 WAT             973 ****               0 ****  **** 
    326 WAT             976 ****               0 ****  **** 
    327 WAT             979 ****               0 ****  **** 
    328 WAT             982 ****               0 ****  **** 
    329 WAT             985 ****               0 ****  **** 
    330 WAT             988 ****               0 ****  **** 
    331 WAT             991 ****               0 ****  **** 
    332 WAT             994 ****               0 ****  **** 
    333 WAT             997 ****               0 ****  **** 
    334 WAT            1000 ****               0 ****  **** 
    335 WAT            1003 ****               0 ****  **** 
    336 WAT            1006 ****               0 ****  **** 
    337 WAT            1009 ****               0 ****  **** 
    338 WAT            1012 ****               0 ****  **** 
    339 WAT            1015 ****               0 ****  **** 
    340 WAT            1018 ****               0 ****  **** 
    341 WAT            1021 ****               0 ****  **** 
    342 WAT            1024 ****               0 ****  **** 
    343 WAT            1027 ****               0 ****  **** 
    344 WAT            1030 ****               0 ****  **** 
    345 WAT            1033 ****               0 ****  **** 
    346 WAT            1036 ****               0 ****  **** 
    347 WAT            1039 ****               0 ****  **** 
    348 WAT            1042 ****               0 ****  **** 
    349 WAT            1045 ****               0 ****  **** 
    350 WAT            1048 ****               0 ****  **** 
    351 WAT            1051 ****               0 ****  **** 
    352 WAT            1054 ****               0 ****  **** 
    353 WAT            1057 ****               0 ****  **** 
    354 WAT            1060 ****               0 ****  **** 
    355 WAT            1063 ****               0 ****  **** 
    356 WAT            1066 ****               0 ****  **** 
    357 WAT            1069 ****               0 ****  **** 
    358 WAT            1072 ****               0 ****  **** 
    359 WAT            1075 ****               0 ****  **** 
    360 WAT            1078 ****               0 ****  **** 
    361 WAT            1081 ****               0 ****  **** 
    362 WAT            1084 ****               0 ****  **** 
    363 WAT            1087 ****               0 ****  **** 
    364 WAT            1090 ****               0 ****  **** 
    365 WAT            1093 ****               0 ****  **** 
    366 WAT            1096 ****               0 ****  **** 
    367 WAT            1099 ****               0 ****  **** 
    368 WAT            1102 ****               0 ****  **** 
    369 WAT            1105 ****               0 ****  **** 
    370 WAT            1108 ****               0 ****  **** 
    371 WAT            1111 ****               0 ****  **** 
    372 WAT            1114 ****               0 ****  **** 
    373 WAT            1117 ****               0 ****  **** 
    374 WAT            1120 ****               0 ****  **** 
    375 WAT            1123 ****               0 ****  **** 
    376 WAT            1126 ****               0 ****  **** 
    377 WAT            1129 ****               0 ****  **** 
    378 WAT            1132 ****               0 ****  **** 
    379 WAT            1135 ****               0 ****  **** 
    380 WAT            1138 ****               0 ****  **** 
    381 WAT            1141 ****               0 ****  **** 
    382 WAT            1144 ****               0 ****  **** 
    383 WAT            1147 ****               0 ****  **** 
    384 WAT            1150 ****               0 ****  **** 
    385 WAT            1153 ****               0 ****  **** 
    386 WAT            1156 ****               0 ****  **** 
    387 WAT            1159 ****               0 ****  **** 
    388 WAT            1162 ****               0 ****  **** 
    389 WAT            1165 ****               0 ****  **** 
    390 WAT            1168 ****               0 ****  **** 
    391 WAT            1171 ****               0 ****  **** 
    392 WAT            1174 ****               0 ****  **** 
    393 WAT            1177 ****               0 ****  **** 
    394 WAT            1180 ****               0 ****  **** 
    395 WAT            1183 ****               0 ****  **** 
    396 WAT            1186 ****               0 ****  **** 
    397 WAT            1189 ****               0 ****  **** 
    398 WAT            1192 ****               0 ****  **** 
    399 WAT            1195 ****               0 ****  **** 
    400 WAT            1198 ****               0 ****  **** 
    401 WAT            1201 ****               0 ****  **** 
    402 WAT            1204 ****               0 ****  **** 
    403 WAT            1207 ****               0 ****  **** 
    404 WAT            1210 ****               0 ****  **** 
    405 WAT            1213 ****               0 ****  **** 
    406 WAT            1216 ****               0 ****  **** 
    407 WAT            1219 ****               0 ****  **** 
    408 WAT            1222 ****               0 ****  **** 
    409 WAT            1225 ****               0 ****  **** 
    410 WAT            1228 ****               0 ****  **** 
    411 WAT            1231 ****               0 ****  **** 
    412 WAT            1234 ****               0 ****  **** 
    413 WAT            1237 ****               0 ****  **** 
    414 WAT            1240 ****               0 ****  **** 
    415 WAT            1243 ****               0 ****  **** 
    416 WAT            1246 ****               0 ****  **** 
    417 WAT            1249 ****               0 ****  **** 
    418 WAT            1252 ****               0 ****  **** 
    419 WAT            1255 ****               0 ****  **** 
    420 WAT            1258 ****               0 ****  **** 
    421 WAT            1261 ****               0 ****  **** 
    422 WAT            1264 ****               0 ****  **** 
    423 WAT            1267 ****               0 ****  **** 
    424 WAT            1270 ****               0 ****  **** 
    425 WAT            1273 ****               0 ****  **** 
    426 WAT            1276 ****               0 ****  **** 
    427 WAT            1279 ****               0 ****  **** 
    428 WAT            1282 ****               0 ****  **** 
    429 WAT            1285 ****               0 ****  **** 
    430 WAT            1288 ****               0 ****  **** 
    431 WAT            1291 ****               0 ****  **** 
    432 WAT            1294 ****               0 ****  **** 
    433 WAT            1297 ****               0 ****  **** 
    434 WAT            1300 ****               0 ****  **** 
    435 WAT            1303 ****               0 ****  **** 
    436 WAT            1306 ****               0 ****  **** 
    437 WAT            1309 ****               0 ****  **** 
    438 WAT            1312 ****               0 ****  **** 
    439 WAT            1315 ****               0 ****  **** 
    440 WAT            1318 ****               0 ****  **** 
    441 WAT            1321 ****               0 ****  **** 
    442 WAT            1324 ****               0 ****  **** 
    443 WAT            1327 ****               0 ****  **** 
    444 WAT            1330 ****               0 ****  **** 
    445 WAT            1333 ****               0 ****  **** 
    446 WAT            1336 ****               0 ****  **** 
    447 WAT            1339 ****               0 ****  **** 
    448 WAT            1342 ****               0 ****  **** 
    449 WAT            1345 ****               0 ****  **** 
    450 WAT            1348 ****               0 ****  **** 
    451 WAT            1351 ****               0 ****  **** 
    452 WAT            1354 ****               0 ****  **** 
    453 WAT            1357 ****               0 ****  **** 
    454 WAT            1360 ****               0 ****  **** 
    455 WAT            1363 ****               0 ****  **** 
    456 WAT            1366 ****               0 ****  **** 
    457 WAT            1369 ****               0 ****  **** 
    458 WAT            1372 ****               0 ****  **** 
    459 WAT            1375 ****               0 ****  **** 
    460 WAT            1378 ****               0 ****  **** 
    461 WAT            1381 ****               0 ****  **** 
    462 WAT            1384 ****               0 ****  **** 
    463 WAT            1387 ****               0 ****  **** 
    464 WAT            1390 ****               0 ****  **** 
    465 WAT            1393 ****               0 ****  **** 
    466 WAT            1396 ****               0 ****  **** 
    467 WAT            1399 ****               0 ****  **** 
    468 WAT            1402 ****               0 ****  **** 
    469 WAT            1405 ****               0 ****  **** 
    470 WAT            1408 ****               0 ****  **** 
    471 WAT            1411 ****               0 ****  **** 
    472 WAT            1414 ****               0 ****  **** 
    473 WAT            1417 ****               0 ****  **** 
    474 WAT            1420 ****               0 ****  **** 
    475 WAT            1423 ****               0 ****  **** 
    476 WAT            1426 ****               0 ****  **** 
    477 WAT            1429 ****               0 ****  **** 
    478 WAT            1432 ****               0 ****  **** 
    479 WAT            1435 ****               0 ****  **** 
    480 WAT            1438 ****               0 ****  **** 
    481 WAT            1441 ****               0 ****  **** 
    482 WAT            1444 ****               0 ****  **** 
    483 WAT            1447 ****               0 ****  **** 
    484 WAT            1450 ****               0 ****  **** 
    485 WAT            1453 ****               0 ****  **** 
    486 WAT            1456 ****               0 ****  **** 
    487 WAT            1459 ****               0 ****  **** 
    488 WAT            1462 ****               0 ****  **** 
    489 WAT            1465 ****               0 ****  **** 
    490 WAT            1468 ****               0 ****  **** 
    491 WAT            1471 ****               0 ****  **** 
    492 WAT            1474 ****               0 ****  **** 
    493 WAT            1477 ****               0 ****  **** 
    494 WAT            1480 ****               0 ****  **** 
    495 WAT            1483 ****               0 ****  **** 
    496 WAT            1486 ****               0 ****  **** 
    497 WAT            1489 ****               0 ****  **** 
    498 WAT            1492 ****               0 ****  **** 
    499 WAT            1495 ****               0 ****  **** 
    500 WAT            1498 ****               0 ****  **** 
    501 WAT            1501 ****               0 ****  **** 
    502 WAT            1504 ****               0 ****  **** 
    503 WAT            1507 ****               0 ****  **** 
    504 WAT            1510 ****               0 ****  **** 
    505 WAT            1513 ****               0 ****  **** 
    506 WAT            1516 ****               0 ****  **** 
    507 WAT            1519 ****               0 ****  **** 
    508 WAT            1522 ****               0 ****  **** 
    509 WAT            1525 ****               0 ****  **** 
    510 WAT            1528 ****               0 ****  **** 
    511 WAT            1531 ****               0 ****  **** 
    512 WAT            1534 ****               0 ****  **** 
    513 WAT            1537 ****               0 ****  **** 
    514 WAT            1540 ****               0 ****  **** 
    515 WAT            1543 ****               0 ****  **** 
    516 WAT            1546 ****               0 ****  **** 
    517 WAT            1549 ****               0 ****  **** 
    518 WAT            1552 ****               0 ****  **** 
    519 WAT            1555 ****               0 ****  **** 
    520 WAT            1558 ****               0 ****  **** 
    521 WAT            1561 ****               0 ****  **** 
    522 WAT            1564 ****               0 ****  **** 
    523 WAT            1567 ****               0 ****  **** 
    524 WAT            1570 ****               0 ****  **** 
    525 WAT            1573 ****               0 ****  **** 
    526 WAT            1576 ****               0 ****  **** 
    527 WAT            1579 ****               0 ****  **** 
    528 WAT            1582 ****               0 ****  **** 
    529 WAT            1585 ****               0 ****  **** 
    530 WAT            1588 ****               0 ****  **** 
    531 WAT            1591 ****               0 ****  **** 
    532 WAT            1594 ****               0 ****  **** 
    533 WAT            1597 ****               0 ****  **** 
    534 WAT            1600 ****               0 ****  **** 
    535 WAT            1603 ****               0 ****  **** 
    536 WAT            1606 ****               0 ****  **** 
    537 WAT            1609 ****               0 ****  **** 
    538 WAT            1612 ****               0 ****  **** 
    539 WAT            1615 ****               0 ****  **** 
    540 WAT            1618 ****               0 ****  **** 
    541 WAT            1621 ****               0 ****  **** 
    542 WAT            1624 ****               0 ****  **** 
    543 WAT            1627 ****               0 ****  **** 
    544 WAT            1630 ****               0 ****  **** 
    545 WAT            1633 ****               0 ****  **** 
    546 WAT            1636 ****               0 ****  **** 
    547 WAT            1639 ****               0 ****  **** 
    548 WAT            1642 ****               0 ****  **** 
    549 WAT            1645 ****               0 ****  **** 
    550 WAT            1648 ****               0 ****  **** 
    551 WAT            1651 ****               0 ****  **** 
    552 WAT            1654 ****               0 ****  **** 
    553 WAT            1657 ****               0 ****  **** 
    554 WAT            1660 ****               0 ****  **** 
    555 WAT            1663 ****               0 ****  **** 
    556 WAT            1666 ****               0 ****  **** 
    557 WAT            1669 ****               0 ****  **** 
    558 WAT            1672 ****               0 ****  **** 
    559 WAT            1675 ****               0 ****  **** 
    560 WAT            1678 ****               0 ****  **** 
    561 WAT            1681 ****               0 ****  **** 
    562 WAT            1684 ****               0 ****  **** 
    563 WAT            1687 ****               0 ****  **** 
    564 WAT            1690 ****               0 ****  **** 
    565 WAT            1693 ****               0 ****  **** 
    566 WAT            1696 ****               0 ****  **** 
    567 WAT            1699 ****               0 ****  **** 
    568 WAT            1702 ****               0 ****  **** 
    569 WAT            1705 ****               0 ****  **** 
    570 WAT            1708 ****               0 ****  **** 
    571 WAT            1711 ****               0 ****  **** 
    572 WAT            1714 ****               0 ****  **** 
    573 WAT            1717 ****               0 ****  **** 
    574 WAT            1720 ****               0 ****  **** 
    575 WAT            1723 ****               0 ****  **** 
    576 WAT            1726 ****               0 ****  **** 
    577 WAT            1729 ****               0 ****  **** 
    578 WAT            1732 ****               0 ****  **** 
    579 WAT            1735 ****               0 ****  **** 
    580 WAT            1738 ****               0 ****  **** 
    581 WAT            1741 ****               0 ****  **** 
    582 WAT            1744 ****               0 ****  **** 
    583 WAT            1747 ****               0 ****  **** 
    584 WAT            1750 ****               0 ****  **** 
    585 WAT            1753 ****               0 ****  **** 
    586 WAT            1756 ****               0 ****  **** 
    587 WAT            1759 ****               0 ****  **** 
    588 WAT            1762 ****               0 ****  **** 
    589 WAT            1765 ****               0 ****  **** 
    590 WAT            1768 ****               0 ****  **** 
    591 WAT            1771 ****               0 ****  **** 
    592 WAT            1774 ****               0 ****  **** 
    593 WAT            1777 ****               0 ****  **** 
    594 WAT            1780 ****               0 ****  **** 
    595 WAT            1783 ****               0 ****  **** 
    596 WAT            1786 ****               0 ****  **** 
    597 WAT            1789 ****               0 ****  **** 
    598 WAT            1792 ****               0 ****  **** 
    599 WAT            1795 ****               0 ****  **** 
    600 WAT            1798 ****               0 ****  **** 
    601 WAT            1801 ****               0 ****  **** 
    602 WAT            1804 ****               0 ****  **** 
