@<TRIPOS>MOLECULE
Cpptraj generated mol2 file.
   12    12     1     0     0
SMALL
USER_CHARGES


@<TRIPOS>ATOM
      1 C1         11.7855   12.2111   14.2177 c2         1 COR     -0.130000
      2 C_4        12.2068   11.9660   13.0016 c2         1 COR     -0.130000
      3 C_12       12.3212   13.1771   14.9029 c2         1 COR     -0.130000
      4 C3         13.2286   12.7027   12.4468 c2         1 COR     -0.130000
      5 C5         13.3866   13.9033   14.5018 c2         1 COR     -0.130000
      6 C_8        13.8509   13.6155   13.2294 c2         1 COR     -0.130000
      7 H1         10.9499   11.6310   14.6035 ha         1 COR      0.130000
      8 H2         11.7426   11.1580   12.4403 ha         1 COR      0.130000
      9 H3         13.6424   12.5107   11.4591 ha         1 COR      0.130000
     10 H4         13.8720   14.6140   15.1673 ha         1 COR      0.130000
     11 H5         14.6434   14.1787   12.7413 ha         1 COR      0.130000
     12 H7         11.9402   13.2930   15.9153 ha         1 COR      0.130000
@<TRIPOS>BOND
    1     2     1 1
    2     3     1 1
    3     4     2 1
    4     5     3 1
    5     6     4 1
    6     6     5 1
    7     7     1 1
    8     8     2 1
    9     9     4 1
   10    10     5 1
   11    11     6 1
   12    12     3 1
@<TRIPOS>SUBSTRUCTURE
      1 COR               1 ****               0 ****  **** 
