@<TRIPOS>MOLECULE
Cpptraj generated mol2 file.
   13    13     1     0     0
SMALL
USER_CHARGES


@<TRIPOS>ATOM
      1 C1         11.7855   12.2111   14.2177 c2         1 COR     -0.278223
      2 C_4        12.2068   11.9660   13.0016 c2         1 COR     -0.091923
      3 C_12       12.3212   13.1771   14.9029 c2         1 COR      0.378977
      4 C3         13.2286   12.7027   12.4468 c2         1 COR     -0.165923
      5 C5         13.3866   13.9033   14.5018 c2         1 COR     -0.222223
      6 C_8        13.8509   13.6155   13.2294 c2         1 COR     -0.096923
      7 H1         10.9499   11.6310   14.6035 ha         1 COR      0.133077
      8 H2         11.7426   11.1580   12.4403 ha         1 COR      0.132077
      9 H3         13.6424   12.5107   11.4591 ha         1 COR      0.133077
     10 H4         13.8720   14.6140   15.1673 ha         1 COR      0.150077
     11 H5         14.6434   14.1787   12.7413 ha         1 COR      0.134077
     12 O1         11.9030   13.3961   16.1678 oh         1 COR     -0.624223
     13 H7         11.1294   12.8419   16.3709 ho         1 COR      0.418077
@<TRIPOS>BOND
    1     2     1 1
    2     2     4 1
    3     3     1 1
    4     3    12 1
    5     3     5 1
    6     6     4 1
    7     6     5 1
    8     1     7 1
    9     2     8 1
   10     9     4 1
   11    10     5 1
   12    11     6 1
   13    13    12 1
@<TRIPOS>SUBSTRUCTURE
      1 COR               1 ****               0 ****  **** 
