@<TRIPOS>MOLECULE
ACE
   29    29     3     0     1 
SMALL
USER_CHARGES
@<TRIPOS>ATOM
  1 H1      2.000001    1.000000   -0.000001 HC    1 ACE     0.1123 ****
  2 CH3     2.000001    2.090000    0.000000 CT    1 ACE    -0.3662 ****
  3 H2      1.486264    2.453849    0.889824 HC    1 ACE     0.1123 ****
  4 H3      1.486259    2.453852   -0.889820 HC    1 ACE     0.1123 ****
  5 C       3.427420    2.640795   -0.000003 C     1 ACE     0.5972 ****
  6 O       4.390580    1.877406   -0.000007 O     1 ACE    -0.5679 ****
  7 N       3.555375    3.969649   -0.000003 N     2 HIE    -0.4157 ****
  8 H       2.733120    4.556160   -0.000001 H     2 HIE     0.2719 ****
  9 CA      4.853262    4.613925   -0.000004 CX    2 HIE    -0.0581 ****
 10 HA      5.407596    4.315539    0.889815 H1    2 HIE     0.1360 ****
 11 CB      5.661304    4.220843   -1.232148 CT    2 HIE    -0.0074 ****
 12 HB2     5.808540    3.140872   -1.241385 HC    2 HIE     0.0367 ****
 13 HB3     5.123262    4.521363   -2.131202 HC    2 HIE     0.0367 ****
 14 CG      7.033531    4.844689   -1.321092 CC    2 HIE     0.1868 ****
 15 ND1     7.892553    4.586658   -2.382977 NB    2 HIE    -0.5432 ****
 16 CE1     9.005109    5.268149   -2.182505 CR    2 HIE     0.1635 ****
 17 HE1     9.819342    5.206922   -2.904568 H5    2 HIE     0.1435 ****
 18 NE2     8.898919    5.937885   -1.061667 NA    2 HIE    -0.2795 ****
 19 HE2     9.612554    6.540169   -0.676858 H     2 HIE     0.3339 ****
 20 CD2     7.686336    5.702848   -0.492457 CW    2 HIE    -0.2207 ****
 21 HD2     7.425315    6.181615    0.451339 H4    2 HIE     0.1862 ****
 22 C       4.712676    6.129418    0.000001 C     2 HIE     0.5973 ****
 23 O       3.600644    6.652703    0.000006 O     2 HIE    -0.5679 ****
 24 N       5.846053    6.834883    0.000003 N     3 NME    -0.4157 ****
 25 H       6.737001    6.359162   -0.000000 H     3 NME     0.2719 ****
 26 CH3     5.846055    8.283884    0.000006 CT    3 NME    -0.1490 ****
 27 HH31    4.818576    8.647735    0.000010 H1    3 NME     0.0976 ****
 28 HH32    6.359798    8.647731    0.889828 H1    3 NME     0.0976 ****
 29 HH33    6.359790    8.647735   -0.889819 H1    3 NME     0.0976 ****
@<TRIPOS>BOND
    1     5     6 1
    2     5     7 1
    3     2     3 1
    4     2     4 1
    5     2     5 1
    6     1     2 1
    7    22    23 1
    8    22    24 1
    9    20    21 1
   10    18    19 1
   11    18    20 1
   12    16    17 1
   13    16    18 1
   14    15    16 1
   15    14    15 1
   16    14    20 1
   17    11    12 1
   18    11    13 1
   19    11    14 1
   20     9    10 1
   21     9    11 1
   22     9    22 1
   23     7     8 1
   24     7     9 1
   25    26    27 1
   26    26    28 1
   27    26    29 1
   28    24    25 1
   29    24    26 1
@<TRIPOS>SUBSTRUCTURE
      1  ACE              1 ****               0 ****  **** 
      2  HIE              7 ****               0 ****  **** 
      3  NME             24 ****               0 ****  **** 
