@<TRIPOS>MOLECULE
ACE
1475 1475 485 0 0
POLYMER
CHARGES


@<TRIPOS>ATOM
1 H1 -3.50301 -4.04574 0.492609 HC 1 ACE_1    0.112
2 CH3 -3.503 -2.956 0.493 CT 1 ACE_1   -0.366
3 H2 -4.017 -2.592 1.382 HC 1 ACE_1    0.112
4 H3 -4.017 -2.592 -0.397 HC 1 ACE_1    0.112
5 C -2.076 -2.405 0.493 C 1 ACE_1    0.597
6 O -1.112 -3.168 0.493 O 1 ACE_1   -0.568
7 N -1.948 -1.076 0.493 N 2 HIE_2   -0.416
8 H -2.770 -0.490 0.493 H 2 HIE_2    0.272
9 CA -0.650 -0.432 0.493 CX 2 HIE_2   -0.058
10 HA -0.095 -0.730 1.382 H1 2 HIE_2    0.136
11 CB 0.158 -0.825 -0.740 CT 2 HIE_2   -0.007
12 HB2 0.306 -1.905 -0.749 HC 2 HIE_2    0.037
13 HB3 -0.380 -0.524 -1.639 HC 2 HIE_2    0.037
14 CG 1.531 -0.201 -0.828 CC 2 HIE_2    0.187
15 ND1 2.390 -0.459 -1.890 NB 2 HIE_2   -0.543
16 CE1 3.502 0.222 -1.690 CR 2 HIE_2    0.164
17 HE1 4.316 0.161 -2.412 H5 2 HIE_2    0.143
18 NE2 3.396 0.892 -0.569 NA 2 HIE_2   -0.280
19 HE2 4.110 1.494 -0.184 H 2 HIE_2    0.334
20 CD2 2.183 0.657 0.000 CW 2 HIE_2   -0.221
21 HD2 1.922 1.136 0.944 H4 2 HIE_2    0.186
22 C -0.790 1.084 0.493 C 2 HIE_2    0.597
23 O -1.902 1.607 0.493 O 2 HIE_2   -0.568
24 N 0.343 1.789 0.493 N 3 NME_3   -0.416
25 H 1.234 1.313 0.493 H 3 NME_3    0.272
26 CH3 0.343 3.238 0.493 CT 3 NME_3   -0.149
27 HH31 -0.684 3.602 0.493 H1 3 NME_3    0.098
28 HH32 0.857 3.602 1.382 H1 3 NME_3    0.098
29 HH33 0.857 3.602 -0.397 H1 3 NME_3    0.098
30 O 0.652 8.596 1.268 OW 4 WAT_4   -0.830
31 H1 1.522 8.878 1.551 HW 4 WAT_4    0.415
32 H2 0.161 9.409 1.153 HW 4 WAT_4    0.415
33 O 0.933 9.016 7.435 OW 5 WAT_5   -0.830
34 H1 0.277 8.748 6.791 HW 5 WAT_5    0.415
35 H2 1.770 8.907 6.985 HW 5 WAT_5    0.415
36 O 6.679 10.371 3.119 OW 6 WAT_6   -0.830
37 H1 7.101 10.205 3.962 HW 6 WAT_6    0.415
38 H2 6.804 9.561 2.625 HW 6 WAT_6    0.415
39 O 8.303 3.490 6.911 OW 7 WAT_7   -0.830
40 H1 7.490 3.116 6.570 HW 7 WAT_7    0.415
41 H2 8.807 2.735 7.213 HW 7 WAT_7    0.415
42 O 9.192 9.395 0.367 OW 8 WAT_8   -0.830
43 H1 9.713 8.680 0.001 HW 8 WAT_8    0.415
44 H2 9.839 10.033 0.667 HW 8 WAT_8    0.415
45 O 4.613 11.963 4.094 OW 9 WAT_9   -0.830
46 H1 3.839 11.422 3.934 HW 9 WAT_9    0.415
47 H2 5.343 11.443 3.756 HW 9 WAT_9    0.415
48 O 8.056 5.657 2.423 OW 10 WAT_10   -0.830
49 H1 8.178 5.615 3.372 HW 10 WAT_10    0.415
50 H2 7.671 6.519 2.268 HW 10 WAT_10    0.415
51 O 10.571 8.859 4.909 OW 11 WAT_11   -0.830
52 H1 9.644 8.793 5.138 HW 11 WAT_11    0.415
53 H2 10.723 9.797 4.795 HW 11 WAT_11    0.415
54 O 10.971 5.389 6.932 OW 12 WAT_12   -0.830
55 H1 11.364 5.707 6.119 HW 12 WAT_12    0.415
56 H2 11.333 4.511 7.046 HW 12 WAT_12    0.415
57 O 11.960 8.353 7.666 OW 13 WAT_13   -0.830
58 H1 11.880 7.439 7.396 HW 13 WAT_13    0.415
59 H2 11.547 8.850 6.960 HW 13 WAT_13    0.415
60 O 7.545 5.813 5.296 OW 14 WAT_14   -0.830
61 H1 6.836 6.281 5.738 HW 14 WAT_14    0.415
62 H2 7.829 5.155 5.931 HW 14 WAT_14    0.415
63 O 0.574 12.392 2.715 OW 15 WAT_15   -0.830
64 H1 0.197 12.881 1.983 HW 15 WAT_15    0.415
65 H2 0.831 13.065 3.346 HW 15 WAT_15    0.415
66 O 11.557 7.980 11.027 OW 16 WAT_16   -0.830
67 H1 10.825 8.489 11.376 HW 16 WAT_16    0.415
68 H2 11.159 7.163 10.726 HW 16 WAT_16    0.415
69 O 8.513 12.979 5.776 OW 17 WAT_17   -0.830
70 H1 9.200 13.526 6.157 HW 17 WAT_17    0.415
71 H2 7.726 13.523 5.811 HW 17 WAT_17    0.415
72 O 13.054 1.255 2.594 OW 18 WAT_18   -0.830
73 H1 13.334 0.412 2.950 HW 18 WAT_18    0.415
74 H2 12.281 1.487 3.108 HW 18 WAT_18    0.415
75 O 5.135 6.747 6.303 OW 19 WAT_19   -0.830
76 H1 4.909 6.530 7.207 HW 19 WAT_19    0.415
77 H2 4.354 7.180 5.957 HW 19 WAT_19    0.415
78 O 4.647 10.374 1.145 OW 20 WAT_20   -0.830
79 H1 5.414 10.262 1.707 HW 20 WAT_20    0.415
80 H2 4.725 9.678 0.493 HW 20 WAT_20    0.415
81 O 10.833 2.353 4.030 OW 21 WAT_21   -0.830
82 H1 10.019 1.854 3.954 HW 21 WAT_21    0.415
83 H2 10.639 3.193 3.613 HW 21 WAT_21    0.415
84 O 2.877 8.280 5.192 OW 22 WAT_22   -0.830
85 H1 2.757 9.006 4.580 HW 22 WAT_22    0.415
86 H2 2.567 7.510 4.715 HW 22 WAT_22    0.415
87 O 10.417 1.071 11.399 OW 23 WAT_23   -0.830
88 H1 9.634 1.546 11.679 HW 23 WAT_23    0.415
89 H2 10.123 0.167 11.291 HW 23 WAT_23    0.415
90 O 7.068 7.967 1.821 OW 24 WAT_24   -0.830
91 H1 6.500 7.519 1.195 HW 24 WAT_24    0.415
92 H2 7.777 8.326 1.288 HW 24 WAT_24    0.415
93 O 12.019 3.433 10.439 OW 25 WAT_25   -0.830
94 H1 12.036 3.884 11.284 HW 25 WAT_25    0.415
95 H2 11.771 2.534 10.653 HW 25 WAT_25    0.415
96 O 3.717 0.327 5.861 OW 26 WAT_26   -0.830
97 H1 3.588 0.319 6.809 HW 26 WAT_26    0.415
98 H2 2.893 0.665 5.510 HW 26 WAT_26    0.415
99 O 11.206 11.707 5.341 OW 27 WAT_27   -0.830
100 H1 10.587 12.172 4.777 HW 27 WAT_27    0.415
101 H2 11.718 12.399 5.758 HW 27 WAT_27    0.415
102 O 6.327 1.640 5.515 OW 28 WAT_28   -0.830
103 H1 5.698 0.939 5.682 HW 28 WAT_28    0.415
104 H2 5.788 2.401 5.299 HW 28 WAT_28    0.415
105 O 7.994 4.655 9.432 OW 29 WAT_29   -0.830
106 H1 7.998 4.214 8.583 HW 29 WAT_29    0.415
107 H2 8.889 4.977 9.539 HW 29 WAT_29    0.415
108 O 12.427 12.219 8.369 OW 30 WAT_30   -0.830
109 H1 12.779 11.622 7.709 HW 30 WAT_30    0.415
110 H2 11.543 11.893 8.540 HW 30 WAT_30    0.415
111 O 0.481 8.004 10.093 OW 31 WAT_31   -0.830
112 H1 1.053 7.236 10.094 HW 31 WAT_31    0.415
113 H2 0.481 8.303 9.184 HW 31 WAT_31    0.415
114 O 6.645 13.072 9.855 OW 32 WAT_32   -0.830
115 H1 6.348 12.467 9.176 HW 32 WAT_32    0.415
116 H2 7.595 13.110 9.744 HW 32 WAT_32    0.415
117 O 0.516 11.451 10.999 OW 33 WAT_33   -0.830
118 H1 0.594 11.586 10.055 HW 33 WAT_33    0.415
119 H2 1.130 10.743 11.192 HW 33 WAT_33    0.415
120 O 1.760 13.151 7.410 OW 34 WAT_34   -0.830
121 H1 1.353 13.293 6.555 HW 34 WAT_34    0.415
122 H2 2.652 12.867 7.207 HW 34 WAT_34    0.415
123 O 4.694 3.986 5.243 OW 35 WAT_35   -0.830
124 H1 4.801 4.887 5.550 HW 35 WAT_35    0.415
125 H2 3.783 3.938 4.953 HW 35 WAT_35    0.415
126 O 1.159 3.460 7.308 OW 36 WAT_36   -0.830
127 H1 0.874 3.096 8.146 HW 36 WAT_36    0.415
128 H2 1.097 2.728 6.694 HW 36 WAT_36    0.415
129 O 2.637 10.413 3.396 OW 37 WAT_37   -0.830
130 H1 2.030 11.153 3.406 HW 37 WAT_37    0.415
131 H2 3.112 10.503 2.570 HW 37 WAT_37    0.415
132 O 7.381 2.168 10.433 OW 38 WAT_38   -0.830
133 H1 7.678 3.074 10.353 HW 38 WAT_38    0.415
134 H2 7.930 1.680 9.819 HW 38 WAT_38    0.415
135 O 9.544 12.897 3.005 OW 39 WAT_39   -0.830
136 H1 9.885 13.641 2.509 HW 39 WAT_39    0.415
137 H2 8.715 13.210 3.367 HW 39 WAT_39    0.415
138 O 11.576 2.538 6.736 OW 40 WAT_40   -0.830
139 H1 11.453 2.556 5.787 HW 40 WAT_40    0.415
140 H2 12.525 2.586 6.856 HW 40 WAT_40    0.415
141 O 2.342 5.908 10.488 OW 41 WAT_41   -0.830
142 H1 3.023 6.172 11.107 HW 41 WAT_41    0.415
143 H2 2.027 5.068 10.822 HW 41 WAT_41    0.415
144 O 6.535 6.955 9.576 OW 42 WAT_42   -0.830
145 H1 7.043 7.453 10.216 HW 42 WAT_42    0.415
146 H2 7.066 6.178 9.400 HW 42 WAT_42    0.415
147 O 3.845 4.538 8.392 OW 43 WAT_43   -0.830
148 H1 3.505 5.016 9.148 HW 43 WAT_43    0.415
149 H2 3.082 4.085 8.032 HW 43 WAT_43    0.415
150 O 10.558 5.131 1.906 OW 44 WAT_44   -0.830
151 H1 9.618 5.292 1.991 HW 44 WAT_44    0.415
152 H2 10.876 5.849 1.360 HW 44 WAT_44    0.415
153 O 8.459 1.244 3.455 OW 45 WAT_45   -0.830
154 H1 7.835 1.240 4.180 HW 45 WAT_45    0.415
155 H2 8.372 0.378 3.059 HW 45 WAT_45    0.415
156 O 10.092 10.131 9.547 OW 46 WAT_46   -0.830
157 H1 9.316 9.651 9.837 HW 46 WAT_46    0.415
158 H2 10.743 9.452 9.373 HW 46 WAT_46    0.415
159 O 12.777 9.660 2.420 OW 47 WAT_47   -0.830
160 H1 13.216 8.822 2.274 HW 47 WAT_47    0.415
161 H2 13.490 10.293 2.507 HW 47 WAT_47    0.415
162 O 12.805 0.154 8.149 OW 48 WAT_48   -0.830
163 H1 13.408 0.726 8.624 HW 48 WAT_48    0.415
164 H2 12.064 0.718 7.927 HW 48 WAT_48    0.415
165 O 12.365 6.753 4.902 OW 49 WAT_49   -0.830
166 H1 11.765 7.477 4.718 HW 49 WAT_49    0.415
167 H2 12.913 6.691 4.119 HW 49 WAT_49    0.415
168 O 7.816 9.983 5.389 OW 50 WAT_50   -0.830
169 H1 8.272 10.794 5.615 HW 50 WAT_50    0.415
170 H2 7.465 9.666 6.221 HW 50 WAT_50    0.415
171 O 8.183 0.794 8.173 OW 51 WAT_51   -0.830
172 H1 8.490 0.239 7.457 HW 51 WAT_51    0.415
173 H2 7.253 0.928 7.991 HW 51 WAT_51    0.415
174 O 6.177 9.385 7.691 OW 52 WAT_52   -0.830
175 H1 5.772 8.673 7.196 HW 52 WAT_52    0.415
176 H2 6.263 9.041 8.580 HW 52 WAT_52    0.415
177 O 11.012 11.412 1.223 OW 53 WAT_53   -0.830
178 H1 10.463 11.859 1.867 HW 53 WAT_53    0.415
179 H2 11.634 10.907 1.746 HW 53 WAT_53    0.415
180 O 7.772 12.350 0.618 OW 54 WAT_54   -0.830
181 H1 7.667 11.735 1.345 HW 54 WAT_54    0.415
182 H2 7.604 11.826 -0.165 HW 54 WAT_54    0.415
183 O 4.657 11.631 7.732 OW 55 WAT_55   -0.830
184 H1 5.175 10.827 7.678 HW 55 WAT_55    0.415
185 H2 4.205 11.569 8.573 HW 55 WAT_55    0.415
186 O 9.533 12.807 9.554 OW 56 WAT_56   -0.830
187 H1 9.464 11.866 9.393 HW 56 WAT_56    0.415
188 H2 10.295 12.897 10.127 HW 56 WAT_56    0.415
189 O 5.343 1.623 8.574 OW 57 WAT_57   -0.830
190 H1 4.900 2.404 8.243 HW 57 WAT_57    0.415
191 H2 5.902 1.946 9.282 HW 57 WAT_57    0.415
192 O 10.564 5.614 9.781 OW 58 WAT_58   -0.830
193 H1 10.940 4.741 9.669 HW 58 WAT_58    0.415
194 H2 10.466 5.950 8.890 HW 58 WAT_58    0.415
195 O 0.007 1.980 9.155 OW 59 WAT_59   -0.830
196 H1 -0.281 2.550 9.867 HW 59 WAT_59    0.415
197 H2 0.752 1.500 9.518 HW 59 WAT_59    0.415
198 O 3.397 12.848 0.886 OW 60 WAT_60   -0.830
199 H1 3.834 13.391 1.542 HW 60 WAT_60    0.415
200 H2 3.881 12.023 0.895 HW 60 WAT_60    0.415
201 O 4.109 10.443 10.425 OW 61 WAT_61   -0.830
202 H1 3.277 10.188 10.825 HW 61 WAT_61    0.415
203 H2 4.717 10.514 11.161 HW 61 WAT_61    0.415
204 O 2.026 0.587 10.229 OW 62 WAT_62   -0.830
205 H1 2.673 0.037 9.789 HW 62 WAT_62    0.415
206 H2 2.446 0.842 11.051 HW 62 WAT_62    0.415
207 O 6.085 7.756 -5.277 OW 63 WAT_63   -0.830
208 H1 5.781 8.636 -5.052 HW 63 WAT_63    0.415
209 H2 7.040 7.816 -5.241 HW 63 WAT_63    0.415
210 O 12.210 4.578 -5.703 OW 64 WAT_64   -0.830
211 H1 12.578 3.758 -5.375 HW 64 WAT_64    0.415
212 H2 11.350 4.639 -5.287 HW 64 WAT_64    0.415
213 O 2.141 8.597 -4.130 OW 65 WAT_65   -0.830
214 H1 1.783 9.262 -3.543 HW 65 WAT_65    0.415
215 H2 1.847 7.765 -3.759 HW 65 WAT_65    0.415
216 O 11.960 8.353 -11.108 OW 66 WAT_66   -0.830
217 H1 11.880 7.439 -11.379 HW 66 WAT_66    0.415
218 H2 11.547 8.850 -11.814 HW 66 WAT_66    0.415
219 O 12.670 0.154 -6.314 OW 67 WAT_67   -0.830
220 H1 11.796 0.488 -6.517 HW 67 WAT_67    0.415
221 H2 12.561 -0.318 -5.489 HW 67 WAT_67    0.415
222 O 11.726 7.211 -1.367 OW 68 WAT_68   -0.830
223 H1 12.051 6.378 -1.707 HW 68 WAT_68    0.415
224 H2 12.514 7.734 -1.219 HW 68 WAT_68    0.415
225 O 11.929 1.591 -2.641 OW 69 WAT_69   -0.830
226 H1 12.543 1.909 -3.303 HW 69 WAT_69    0.415
227 H2 12.474 1.106 -2.022 HW 69 WAT_69    0.415
228 O 12.424 4.660 -2.240 OW 70 WAT_70   -0.830
229 H1 11.736 3.998 -2.305 HW 70 WAT_70    0.415
230 H2 13.145 4.214 -1.795 HW 70 WAT_70    0.415
231 O 10.754 11.030 -3.001 OW 71 WAT_71   -0.830
232 H1 10.688 10.110 -3.255 HW 71 WAT_71    0.415
233 H2 10.124 11.128 -2.286 HW 71 WAT_71    0.415
234 O 13.177 9.055 -5.154 OW 72 WAT_72   -0.830
235 H1 12.650 9.579 -5.758 HW 72 WAT_72    0.415
236 H2 13.520 9.688 -4.523 HW 72 WAT_72    0.415
237 O 11.557 7.980 -7.747 OW 73 WAT_73   -0.830
238 H1 10.825 8.489 -7.398 HW 73 WAT_73    0.415
239 H2 11.159 7.163 -8.048 HW 73 WAT_73    0.415
240 O 8.501 10.770 -5.114 OW 74 WAT_74   -0.830
241 H1 8.920 11.613 -5.287 HW 74 WAT_74    0.415
242 H2 7.582 10.907 -5.344 HW 74 WAT_74    0.415
243 O 1.724 3.412 -6.894 OW 75 WAT_75   -0.830
244 H1 1.544 2.515 -6.614 HW 75 WAT_75    0.415
245 H2 1.322 3.959 -6.220 HW 75 WAT_75    0.415
246 O 10.838 8.501 -3.731 OW 76 WAT_76   -0.830
247 H1 10.957 7.905 -2.991 HW 76 WAT_76    0.415
248 H2 11.697 8.538 -4.150 HW 76 WAT_76    0.415
249 O 10.417 1.071 -7.375 OW 77 WAT_77   -0.830
250 H1 9.634 1.546 -7.095 HW 77 WAT_77    0.415
251 H2 10.123 0.167 -7.484 HW 77 WAT_77    0.415
252 O 13.740 10.817 -3.084 OW 78 WAT_78   -0.830
253 H1 14.154 10.972 -2.235 HW 78 WAT_78    0.415
254 H2 12.805 10.943 -2.921 HW 78 WAT_78    0.415
255 O 1.970 9.402 -6.799 OW 79 WAT_79   -0.830
256 H1 2.337 9.314 -5.920 HW 79 WAT_79    0.415
257 H2 1.401 8.638 -6.898 HW 79 WAT_79    0.415
258 O 4.889 6.160 -7.303 OW 80 WAT_80   -0.830
259 H1 5.441 6.269 -8.078 HW 80 WAT_80    0.415
260 H2 5.404 6.533 -6.588 HW 80 WAT_80    0.415
261 O 7.605 5.043 -2.473 OW 81 WAT_81   -0.830
262 H1 8.195 4.735 -1.785 HW 81 WAT_81    0.415
263 H2 6.787 4.571 -2.317 HW 81 WAT_81    0.415
264 O 12.019 3.433 -8.335 OW 82 WAT_82   -0.830
265 H1 12.036 3.884 -7.491 HW 82 WAT_82    0.415
266 H2 11.771 2.534 -8.122 HW 82 WAT_82    0.415
267 O 5.737 12.810 -2.268 OW 83 WAT_83   -0.830
268 H1 4.839 13.034 -2.021 HW 83 WAT_83    0.415
269 H2 5.762 12.934 -3.217 HW 83 WAT_83    0.415
270 O 7.994 4.655 -9.342 OW 84 WAT_84   -0.830
271 H1 7.998 4.214 -10.192 HW 84 WAT_84    0.415
272 H2 8.889 4.977 -9.235 HW 84 WAT_84    0.415
273 O 13.133 11.414 -6.982 OW 85 WAT_85   -0.830
274 H1 13.550 11.200 -7.817 HW 85 WAT_85    0.415
275 H2 13.857 11.671 -6.411 HW 85 WAT_85    0.415
276 O 12.427 12.219 -10.405 OW 86 WAT_86   -0.830
277 H1 12.779 11.622 -11.065 HW 86 WAT_86    0.415
278 H2 11.543 11.893 -10.234 HW 86 WAT_86    0.415
279 O 0.481 8.004 -8.681 OW 87 WAT_87   -0.830
280 H1 1.053 7.236 -8.681 HW 87 WAT_87    0.415
281 H2 0.481 8.303 -9.590 HW 87 WAT_87    0.415
282 O 6.645 13.072 -8.919 OW 88 WAT_88   -0.830
283 H1 6.348 12.467 -9.598 HW 88 WAT_88    0.415
284 H2 7.595 13.110 -9.030 HW 88 WAT_88    0.415
285 O 0.516 11.451 -7.775 OW 89 WAT_89   -0.830
286 H1 0.594 11.586 -8.720 HW 89 WAT_89    0.415
287 H2 1.130 10.743 -7.583 HW 89 WAT_89    0.415
288 O 7.381 2.168 -8.341 OW 90 WAT_90   -0.830
289 H1 7.678 3.074 -8.422 HW 90 WAT_90    0.415
290 H2 7.930 1.680 -8.955 HW 90 WAT_90    0.415
291 O 8.295 8.716 -7.596 OW 91 WAT_91   -0.830
292 H1 8.662 8.241 -6.849 HW 91 WAT_91    0.415
293 H2 8.106 9.590 -7.255 HW 91 WAT_91    0.415
294 O 4.564 9.682 -3.693 OW 92 WAT_92   -0.830
295 H1 4.424 10.554 -3.324 HW 92 WAT_92    0.415
296 H2 3.682 9.339 -3.838 HW 92 WAT_92    0.415
297 O 2.342 5.908 -8.286 OW 93 WAT_93   -0.830
298 H1 3.023 6.172 -7.667 HW 93 WAT_93    0.415
299 H2 2.027 5.068 -7.952 HW 93 WAT_93    0.415
300 O 6.535 6.955 -9.199 OW 94 WAT_94   -0.830
301 H1 7.043 7.453 -8.558 HW 94 WAT_94    0.415
302 H2 7.066 6.178 -9.375 HW 94 WAT_94    0.415
303 O 3.845 4.538 -10.383 OW 95 WAT_95   -0.830
304 H1 3.505 5.016 -9.626 HW 95 WAT_95    0.415
305 H2 3.082 4.085 -10.743 HW 95 WAT_95    0.415
306 O 0.572 12.493 -5.236 OW 96 WAT_96   -0.830
307 H1 0.735 12.023 -6.054 HW 96 WAT_96    0.415
308 H2 1.037 11.985 -4.571 HW 96 WAT_96    0.415
309 O 4.500 3.306 -6.925 OW 97 WAT_97   -0.830
310 H1 4.842 4.150 -7.220 HW 97 WAT_97    0.415
311 H2 3.562 3.454 -6.809 HW 97 WAT_97    0.415
312 O 9.280 4.140 -0.583 OW 98 WAT_98   -0.830
313 H1 8.590 3.947 0.052 HW 98 WAT_98    0.415
314 H2 10.024 4.424 -0.050 HW 98 WAT_98    0.415
315 O 10.092 10.131 -9.227 OW 99 WAT_99   -0.830
316 H1 9.316 9.651 -8.937 HW 99 WAT_99    0.415
317 H2 10.743 9.452 -9.401 HW 99 WAT_99    0.415
318 O 7.923 11.035 -2.177 OW 100 WAT_100   -0.830
319 H1 7.158 11.604 -2.262 HW 100 WAT_100    0.415
320 H2 8.105 10.743 -3.070 HW 100 WAT_100    0.415
321 O 12.805 0.154 -10.625 OW 101 WAT_101   -0.830
322 H1 13.408 0.726 -10.150 HW 101 WAT_101    0.415
323 H2 12.064 0.718 -10.848 HW 101 WAT_101    0.415
324 O 9.170 7.232 -5.479 OW 102 WAT_102   -0.830
325 H1 9.669 7.707 -4.814 HW 102 WAT_102    0.415
326 H2 9.313 6.309 -5.272 HW 102 WAT_102    0.415
327 O 8.183 0.794 -10.601 OW 103 WAT_103   -0.830
328 H1 8.490 0.239 -11.317 HW 103 WAT_103    0.415
329 H2 7.253 0.928 -10.784 HW 103 WAT_103    0.415
330 O 6.177 9.385 -11.083 OW 104 WAT_104   -0.830
331 H1 5.772 8.673 -11.578 HW 104 WAT_104    0.415
332 H2 6.263 9.041 -10.194 HW 104 WAT_104    0.415
333 O 9.630 4.490 -4.596 OW 105 WAT_105   -0.830
334 H1 9.168 4.699 -3.784 HW 105 WAT_105    0.415
335 H2 9.228 3.676 -4.899 HW 105 WAT_105    0.415
336 O 2.145 11.868 -3.076 OW 106 WAT_106   -0.830
337 H1 1.761 11.227 -2.478 HW 106 WAT_106    0.415
338 H2 2.457 12.572 -2.507 HW 106 WAT_106    0.415
339 O 4.657 11.631 -11.043 OW 107 WAT_107   -0.830
340 H1 5.175 10.827 -11.097 HW 107 WAT_107    0.415
341 H2 4.205 11.569 -10.201 HW 107 WAT_107    0.415
342 O 9.533 12.807 -9.220 OW 108 WAT_108   -0.830
343 H1 9.464 11.866 -9.381 HW 108 WAT_108    0.415
344 H2 10.295 12.897 -8.648 HW 108 WAT_108    0.415
345 O 5.343 1.623 -10.200 OW 109 WAT_109   -0.830
346 H1 4.900 2.404 -10.531 HW 109 WAT_109    0.415
347 H2 5.902 1.946 -9.493 HW 109 WAT_109    0.415
348 O 7.575 7.645 -1.806 OW 110 WAT_110   -0.830
349 H1 7.479 6.705 -1.956 HW 110 WAT_110    0.415
350 H2 8.418 7.867 -2.201 HW 110 WAT_110    0.415
351 O 13.055 0.334 -0.246 OW 111 WAT_111   -0.830
352 H1 12.941 0.653 0.649 HW 111 WAT_111    0.415
353 H2 13.872 0.735 -0.542 HW 111 WAT_111    0.415
354 O 10.564 5.614 -8.993 OW 112 WAT_112   -0.830
355 H1 10.940 4.741 -9.106 HW 112 WAT_112    0.415
356 H2 10.466 5.950 -9.884 HW 112 WAT_112    0.415
357 O 6.069 11.234 -6.755 OW 113 WAT_113   -0.830
358 H1 5.736 11.861 -6.113 HW 113 WAT_113    0.415
359 H2 6.245 11.761 -7.535 HW 113 WAT_113    0.415
360 O 0.007 1.980 -9.619 OW 114 WAT_114   -0.830
361 H1 -0.281 2.550 -8.907 HW 114 WAT_114    0.415
362 H2 0.752 1.500 -9.256 HW 114 WAT_114    0.415
363 O 14.043 6.599 -5.945 OW 115 WAT_115   -0.830
364 H1 13.630 7.425 -5.691 HW 115 WAT_115    0.415
365 H2 13.311 6.014 -6.137 HW 115 WAT_115    0.415
366 O 11.986 13.249 -0.707 OW 116 WAT_116   -0.830
367 H1 11.380 13.272 -1.447 HW 116 WAT_116    0.415
368 H2 11.681 12.517 -0.170 HW 116 WAT_116    0.415
369 O 5.343 9.055 -1.246 OW 117 WAT_117   -0.830
370 H1 5.043 9.201 -2.143 HW 117 WAT_117    0.415
371 H2 6.114 8.496 -1.339 HW 117 WAT_117    0.415
372 O 9.291 1.934 -2.281 OW 118 WAT_118   -0.830
373 H1 9.230 2.526 -1.531 HW 118 WAT_118    0.415
374 H2 10.231 1.827 -2.426 HW 118 WAT_118    0.415
375 O 4.109 10.443 -8.349 OW 119 WAT_119   -0.830
376 H1 3.277 10.188 -7.950 HW 119 WAT_119    0.415
377 H2 4.717 10.514 -7.614 HW 119 WAT_119    0.415
378 O 0.869 9.628 -1.711 OW 120 WAT_120   -0.830
379 H1 1.373 9.049 -1.139 HW 120 WAT_120    0.415
380 H2 0.130 9.912 -1.173 HW 120 WAT_120    0.415
381 O 4.842 6.351 -2.848 OW 121 WAT_121   -0.830
382 H1 4.312 5.860 -3.476 HW 121 WAT_121    0.415
383 H2 5.511 6.779 -3.382 HW 121 WAT_121    0.415
384 O 2.026 0.587 -8.545 OW 122 WAT_122   -0.830
385 H1 2.673 0.037 -8.986 HW 122 WAT_122    0.415
386 H2 2.446 0.842 -7.723 HW 122 WAT_122    0.415
387 O 0.652 -10.178 1.268 OW 123 WAT_123   -0.830
388 H1 1.522 -9.896 1.551 HW 123 WAT_123    0.415
389 H2 0.161 -9.365 1.153 HW 123 WAT_123    0.415
390 O 0.933 -9.758 7.435 OW 124 WAT_124   -0.830
391 H1 0.277 -10.027 6.791 HW 124 WAT_124    0.415
392 H2 1.770 -9.867 6.985 HW 124 WAT_124    0.415
393 O 6.679 -8.403 3.119 OW 125 WAT_125   -0.830
394 H1 7.101 -8.569 3.962 HW 125 WAT_125    0.415
395 H2 6.804 -9.213 2.625 HW 125 WAT_125    0.415
396 O 13.734 -2.264 10.464 OW 126 WAT_126   -0.830
397 H1 13.747 -2.667 9.596 HW 126 WAT_126    0.415
398 H2 13.182 -1.489 10.360 HW 126 WAT_126    0.415
399 O 9.192 -9.380 0.367 OW 127 WAT_127   -0.830
400 H1 9.713 -10.095 0.001 HW 127 WAT_127    0.415
401 H2 9.839 -8.741 0.667 HW 127 WAT_127    0.415
402 O 4.613 -6.812 4.094 OW 128 WAT_128   -0.830
403 H1 3.839 -7.352 3.934 HW 128 WAT_128    0.415
404 H2 5.343 -7.331 3.756 HW 128 WAT_128    0.415
405 O 8.056 -13.118 2.423 OW 129 WAT_129   -0.830
406 H1 8.178 -13.159 3.372 HW 129 WAT_129    0.415
407 H2 7.671 -12.255 2.268 HW 129 WAT_129    0.415
408 O 10.571 -9.915 4.909 OW 130 WAT_130   -0.830
409 H1 9.644 -9.982 5.138 HW 130 WAT_130    0.415
410 H2 10.723 -8.977 4.795 HW 130 WAT_130    0.415
411 O 10.339 -1.952 7.948 OW 131 WAT_131   -0.830
412 H1 9.720 -1.496 7.377 HW 131 WAT_131    0.415
413 H2 11.194 -1.796 7.547 HW 131 WAT_131    0.415
414 O 11.960 -10.421 7.666 OW 132 WAT_132   -0.830
415 H1 11.880 -11.336 7.396 HW 132 WAT_132    0.415
416 H2 11.547 -9.925 6.960 HW 132 WAT_132    0.415
417 O 7.545 -12.962 5.296 OW 133 WAT_133   -0.830
418 H1 6.836 -12.493 5.738 HW 133 WAT_133    0.415
419 H2 7.829 -13.620 5.931 HW 133 WAT_133    0.415
420 O 7.036 -3.583 2.651 OW 134 WAT_134   -0.830
421 H1 7.027 -2.850 2.036 HW 134 WAT_134    0.415
422 H2 6.116 -3.829 2.744 HW 134 WAT_134    0.415
423 O 13.256 -3.679 2.304 OW 135 WAT_135   -0.830
424 H1 12.563 -3.682 1.645 HW 135 WAT_135    0.415
425 H2 13.999 -4.104 1.874 HW 135 WAT_135    0.415
426 O 6.460 -2.333 9.993 OW 136 WAT_136   -0.830
427 H1 6.976 -2.944 9.468 HW 136 WAT_136    0.415
428 H2 7.110 -1.830 10.484 HW 136 WAT_136    0.415
429 O 0.195 -12.853 0.365 OW 137 WAT_137   -0.830
430 H1 0.112 -11.910 0.507 HW 137 WAT_137    0.415
431 H2 -0.157 -12.995 -0.514 HW 137 WAT_137    0.415
432 O 11.557 -10.794 11.027 OW 138 WAT_138   -0.830
433 H1 10.825 -10.286 11.376 HW 138 WAT_138    0.415
434 H2 11.159 -11.611 10.726 HW 138 WAT_138    0.415
435 O 2.518 -13.371 4.209 OW 139 WAT_139   -0.830
436 H1 1.630 -13.030 4.107 HW 139 WAT_139    0.415
437 H2 2.802 -13.571 3.317 HW 139 WAT_139    0.415
438 O 8.513 -5.796 5.776 OW 140 WAT_140   -0.830
439 H1 9.200 -5.249 6.157 HW 140 WAT_140    0.415
440 H2 7.726 -5.252 5.811 HW 140 WAT_140    0.415
441 O 3.342 -10.967 1.828 OW 141 WAT_141   -0.830
442 H1 3.422 -11.915 1.940 HW 141 WAT_141    0.415
443 H2 4.234 -10.637 1.934 HW 141 WAT_141    0.415
444 O 5.135 -12.028 6.303 OW 142 WAT_142   -0.830
445 H1 4.909 -12.244 7.207 HW 142 WAT_142    0.415
446 H2 4.354 -11.595 5.957 HW 142 WAT_142    0.415
447 O 4.647 -8.400 1.145 OW 143 WAT_143   -0.830
448 H1 5.414 -8.512 1.707 HW 143 WAT_143    0.415
449 H2 4.725 -9.096 0.493 HW 143 WAT_143    0.415
450 O 10.022 -3.520 1.314 OW 144 WAT_144   -0.830
451 H1 10.123 -3.723 0.384 HW 144 WAT_144    0.415
452 H2 9.122 -3.774 1.519 HW 144 WAT_144    0.415
453 O 2.877 -10.494 5.192 OW 145 WAT_145   -0.830
454 H1 2.757 -9.768 4.580 HW 145 WAT_145    0.415
455 H2 2.567 -11.264 4.715 HW 145 WAT_145    0.415
456 O 7.068 -10.808 1.821 OW 146 WAT_146   -0.830
457 H1 6.500 -11.256 1.195 HW 146 WAT_146    0.415
458 H2 7.777 -10.448 1.288 HW 146 WAT_146    0.415
459 O 12.821 -2.053 6.379 OW 147 WAT_147   -0.830
460 H1 13.277 -2.834 6.693 HW 147 WAT_147    0.415
461 H2 13.161 -1.342 6.923 HW 147 WAT_147    0.415
462 O 11.206 -7.068 5.341 OW 148 WAT_148   -0.830
463 H1 10.587 -6.603 4.777 HW 148 WAT_148    0.415
464 H2 11.718 -6.375 5.758 HW 148 WAT_148    0.415
465 O 4.505 -4.472 2.742 OW 149 WAT_149   -0.830
466 H1 3.876 -4.003 3.291 HW 149 WAT_149    0.415
467 H2 4.620 -5.317 3.177 HW 149 WAT_149    0.415
468 O 4.089 -4.297 10.621 OW 150 WAT_150   -0.830
469 H1 4.392 -5.188 10.442 HW 150 WAT_150    0.415
470 H2 4.833 -3.740 10.393 HW 150 WAT_150    0.415
471 O 12.427 -6.556 8.369 OW 151 WAT_151   -0.830
472 H1 12.779 -7.153 7.709 HW 151 WAT_151    0.415
473 H2 11.543 -6.881 8.540 HW 151 WAT_151    0.415
474 O 0.481 -10.771 10.093 OW 152 WAT_152   -0.830
475 H1 1.053 -11.538 10.094 HW 152 WAT_152    0.415
476 H2 0.481 -10.472 9.184 HW 152 WAT_152    0.415
477 O 6.645 -5.702 9.855 OW 153 WAT_153   -0.830
478 H1 6.348 -6.308 9.176 HW 153 WAT_153    0.415
479 H2 7.595 -5.664 9.744 HW 153 WAT_153    0.415
480 O 0.516 -7.323 10.999 OW 154 WAT_154   -0.830
481 H1 0.594 -7.188 10.055 HW 154 WAT_154    0.415
482 H2 1.130 -8.031 11.192 HW 154 WAT_154    0.415
483 O 1.760 -5.623 7.410 OW 155 WAT_155   -0.830
484 H1 1.353 -5.481 6.555 HW 155 WAT_155    0.415
485 H2 2.652 -5.907 7.207 HW 155 WAT_155    0.415
486 O 5.207 -4.806 5.998 OW 156 WAT_156   -0.830
487 H1 4.907 -4.930 6.898 HW 156 WAT_156    0.415
488 H2 5.101 -5.665 5.590 HW 156 WAT_156    0.415
489 O 2.637 -8.361 3.396 OW 157 WAT_157   -0.830
490 H1 2.030 -7.621 3.406 HW 157 WAT_157    0.415
491 H2 3.112 -8.271 2.570 HW 157 WAT_157    0.415
492 O 9.544 -5.877 3.005 OW 158 WAT_158   -0.830
493 H1 9.885 -5.133 2.509 HW 158 WAT_158    0.415
494 H2 8.715 -5.564 3.367 HW 158 WAT_158    0.415
495 O 6.032 -1.408 5.522 OW 159 WAT_159   -0.830
496 H1 5.857 -2.325 5.309 HW 159 WAT_159    0.415
497 H2 5.178 -1.050 5.762 HW 159 WAT_159    0.415
498 O 1.028 -4.751 4.806 OW 160 WAT_160   -0.830
499 H1 0.102 -4.508 4.796 HW 160 WAT_160    0.415
500 H2 1.494 -3.923 4.684 HW 160 WAT_160    0.415
501 O 0.611 -3.137 8.338 OW 161 WAT_161   -0.830
502 H1 0.941 -4.005 8.106 HW 161 WAT_161    0.415
503 H2 1.040 -2.931 9.168 HW 161 WAT_161    0.415
504 O 2.342 -12.866 10.488 OW 162 WAT_162   -0.830
505 H1 3.023 -12.602 11.107 HW 162 WAT_162    0.415
506 H2 2.027 -13.706 10.822 HW 162 WAT_162    0.415
507 O 6.535 -11.819 9.576 OW 163 WAT_163   -0.830
508 H1 7.043 -11.321 10.216 HW 163 WAT_163    0.415
509 H2 7.066 -12.596 9.400 HW 163 WAT_163    0.415
510 O 10.558 -13.644 1.906 OW 164 WAT_164   -0.830
511 H1 9.618 -13.482 1.991 HW 164 WAT_164    0.415
512 H2 10.876 -12.925 1.360 HW 164 WAT_164    0.415
513 O 10.887 -4.175 6.388 OW 165 WAT_165   -0.830
514 H1 11.326 -3.433 5.974 HW 165 WAT_165    0.415
515 H2 10.825 -3.932 7.312 HW 165 WAT_165    0.415
516 O 4.144 -0.818 8.932 OW 166 WAT_166   -0.830
517 H1 4.880 -1.366 9.203 HW 166 WAT_166    0.415
518 H2 4.528 0.048 8.792 HW 166 WAT_166    0.415
519 O 10.092 -8.643 9.547 OW 167 WAT_167   -0.830
520 H1 9.316 -9.123 9.837 HW 167 WAT_167    0.415
521 H2 10.743 -9.323 9.373 HW 167 WAT_167    0.415
522 O 12.777 -9.115 2.420 OW 168 WAT_168   -0.830
523 H1 13.216 -9.952 2.274 HW 168 WAT_168    0.415
524 H2 13.490 -8.482 2.507 HW 168 WAT_168    0.415
525 O 5.575 -12.330 0.065 OW 169 WAT_169   -0.830
526 H1 5.374 -13.193 0.426 HW 169 WAT_169    0.415
527 H2 5.404 -12.417 -0.873 HW 169 WAT_169    0.415
528 O 1.138 -1.230 6.417 OW 170 WAT_170   -0.830
529 H1 0.971 -1.863 7.116 HW 170 WAT_170    0.415
530 H2 0.272 -1.024 6.067 HW 170 WAT_170    0.415
531 O 12.365 -12.021 4.902 OW 171 WAT_171   -0.830
532 H1 11.765 -11.298 4.718 HW 171 WAT_171    0.415
533 H2 12.913 -12.084 4.119 HW 171 WAT_171    0.415
534 O 9.199 -1.442 10.820 OW 172 WAT_172   -0.830
535 H1 9.487 -1.697 9.943 HW 172 WAT_172    0.415
536 H2 9.712 -1.994 11.410 HW 172 WAT_172    0.415
537 O 13.554 -1.188 3.745 OW 173 WAT_173   -0.830
538 H1 13.394 -1.478 4.643 HW 173 WAT_173    0.415
539 H2 13.388 -1.964 3.209 HW 173 WAT_173    0.415
540 O 7.816 -8.791 5.389 OW 174 WAT_174   -0.830
541 H1 8.272 -7.981 5.615 HW 174 WAT_174    0.415
542 H2 7.465 -9.109 6.221 HW 174 WAT_174    0.415
543 O 6.177 -9.389 7.691 OW 175 WAT_175   -0.830
544 H1 5.772 -10.101 7.196 HW 175 WAT_175    0.415
545 H2 6.263 -9.734 8.580 HW 175 WAT_175    0.415
546 O 11.012 -7.363 1.223 OW 176 WAT_176   -0.830
547 H1 10.463 -6.916 1.867 HW 176 WAT_176    0.415
548 H2 11.634 -7.868 1.746 HW 176 WAT_176    0.415
549 O 7.772 -6.425 0.618 OW 177 WAT_177   -0.830
550 H1 7.667 -7.039 1.345 HW 177 WAT_177    0.415
551 H2 7.604 -6.948 -0.165 HW 177 WAT_177    0.415
552 O 0.146 -12.548 3.377 OW 178 WAT_178   -0.830
553 H1 -0.757 -12.285 3.203 HW 178 WAT_178    0.415
554 H2 0.630 -12.277 2.597 HW 178 WAT_178    0.415
555 O 4.657 -7.144 7.732 OW 179 WAT_179   -0.830
556 H1 5.175 -7.947 7.678 HW 179 WAT_179    0.415
557 H2 4.205 -7.206 8.573 HW 179 WAT_179    0.415
558 O 9.533 -5.968 9.554 OW 180 WAT_180   -0.830
559 H1 9.464 -6.909 9.393 HW 180 WAT_180    0.415
560 H2 10.295 -5.877 10.127 HW 180 WAT_180    0.415
561 O 11.392 -5.277 11.336 OW 181 WAT_181   -0.830
562 H1 12.034 -5.978 11.449 HW 181 WAT_181    0.415
563 H2 11.917 -4.497 11.155 HW 181 WAT_181    0.415
564 O 8.664 -1.001 6.009 OW 182 WAT_182   -0.830
565 H1 8.918 -1.039 5.087 HW 182 WAT_182    0.415
566 H2 7.715 -1.128 6.001 HW 182 WAT_182    0.415
567 O 9.757 -1.299 2.657 OW 183 WAT_183   -0.830
568 H1 10.652 -0.960 2.679 HW 183 WAT_183    0.415
569 H2 9.789 -2.021 2.029 HW 183 WAT_183    0.415
570 O 3.397 -5.926 0.886 OW 184 WAT_184   -0.830
571 H1 3.834 -5.383 1.542 HW 184 WAT_184    0.415
572 H2 3.881 -6.751 0.895 HW 184 WAT_184    0.415
573 O 4.109 -8.331 10.425 OW 185 WAT_185   -0.830
574 H1 3.277 -8.586 10.825 HW 185 WAT_185    0.415
575 H2 4.717 -8.260 11.161 HW 185 WAT_185    0.415
576 O 1.100 -2.270 -7.698 OW 186 WAT_186   -0.830
577 H1 0.663 -2.090 -6.866 HW 186 WAT_186    0.415
578 H2 1.668 -1.512 -7.840 HW 186 WAT_186    0.415
579 O 13.734 -2.264 -8.310 OW 187 WAT_187   -0.830
580 H1 13.747 -2.667 -9.178 HW 187 WAT_187    0.415
581 H2 13.182 -1.489 -8.414 HW 187 WAT_187    0.415
582 O 2.855 -4.547 -5.567 OW 188 WAT_188   -0.830
583 H1 2.129 -5.167 -5.634 HW 188 WAT_188    0.415
584 H2 2.916 -4.153 -6.437 HW 188 WAT_188    0.415
585 O 6.085 -11.018 -5.277 OW 189 WAT_189   -0.830
586 H1 5.781 -10.139 -5.052 HW 189 WAT_189    0.415
587 H2 7.040 -10.958 -5.241 HW 189 WAT_189    0.415
588 O 2.141 -10.178 -4.130 OW 190 WAT_190   -0.830
589 H1 1.783 -9.512 -3.543 HW 190 WAT_190    0.415
590 H2 1.847 -11.009 -3.759 HW 190 WAT_190    0.415
591 O 10.339 -1.952 -10.827 OW 191 WAT_191   -0.830
592 H1 9.720 -1.496 -11.397 HW 191 WAT_191    0.415
593 H2 11.194 -1.796 -11.228 HW 191 WAT_191    0.415
594 O 11.960 -10.421 -11.108 OW 192 WAT_192   -0.830
595 H1 11.880 -11.336 -11.379 HW 192 WAT_192    0.415
596 H2 11.547 -9.925 -11.814 HW 192 WAT_192    0.415
597 O 11.726 -11.563 -1.367 OW 193 WAT_193   -0.830
598 H1 12.051 -12.397 -1.707 HW 193 WAT_193    0.415
599 H2 12.514 -11.040 -1.219 HW 193 WAT_193    0.415
600 O 6.460 -2.333 -8.782 OW 194 WAT_194   -0.830
601 H1 6.976 -2.944 -9.307 HW 194 WAT_194    0.415
602 H2 7.110 -1.830 -8.291 HW 194 WAT_194    0.415
603 O 10.754 -7.744 -3.001 OW 195 WAT_195   -0.830
604 H1 10.688 -8.665 -3.255 HW 195 WAT_195    0.415
605 H2 10.124 -7.647 -2.286 HW 195 WAT_195    0.415
606 O 5.281 -5.572 -4.940 OW 196 WAT_196   -0.830
607 H1 5.898 -4.897 -5.222 HW 196 WAT_196    0.415
608 H2 4.420 -5.163 -5.031 HW 196 WAT_196    0.415
609 O 13.177 -9.719 -5.154 OW 197 WAT_197   -0.830
610 H1 12.650 -9.195 -5.758 HW 197 WAT_197    0.415
611 H2 13.520 -9.087 -4.523 HW 197 WAT_197    0.415
612 O 11.557 -10.794 -7.747 OW 198 WAT_198   -0.830
613 H1 10.825 -10.286 -7.398 HW 198 WAT_198    0.415
614 H2 11.159 -11.611 -8.048 HW 198 WAT_198    0.415
615 O 8.501 -8.005 -5.114 OW 199 WAT_199   -0.830
616 H1 8.920 -7.162 -5.287 HW 199 WAT_199    0.415
617 H2 7.582 -7.868 -5.344 HW 199 WAT_199    0.415
618 O 10.838 -10.273 -3.731 OW 200 WAT_200   -0.830
619 H1 10.957 -10.869 -2.991 HW 200 WAT_200    0.415
620 H2 11.697 -10.236 -4.150 HW 200 WAT_200    0.415
621 O 13.740 -7.957 -3.084 OW 201 WAT_201   -0.830
622 H1 14.154 -7.802 -2.235 HW 201 WAT_201    0.415
623 H2 12.805 -7.831 -2.921 HW 201 WAT_201    0.415
624 O 1.970 -9.373 -6.799 OW 202 WAT_202   -0.830
625 H1 2.337 -9.460 -5.920 HW 202 WAT_202    0.415
626 H2 1.401 -10.136 -6.898 HW 202 WAT_202    0.415
627 O 4.889 -12.615 -7.303 OW 203 WAT_203   -0.830
628 H1 5.441 -12.505 -8.078 HW 203 WAT_203    0.415
629 H2 5.404 -12.241 -6.588 HW 203 WAT_203    0.415
630 O 5.737 -5.964 -2.268 OW 204 WAT_204   -0.830
631 H1 4.839 -5.740 -2.021 HW 204 WAT_204    0.415
632 H2 5.762 -5.841 -3.217 HW 204 WAT_204    0.415
633 O 2.901 -11.003 -0.816 OW 205 WAT_205   -0.830
634 H1 2.942 -11.302 0.093 HW 205 WAT_205    0.415
635 H2 3.756 -10.602 -0.975 HW 205 WAT_205    0.415
636 O 4.089 -4.297 -8.154 OW 206 WAT_206   -0.830
637 H1 4.392 -5.188 -8.333 HW 206 WAT_206    0.415
638 H2 4.833 -3.740 -8.381 HW 206 WAT_206    0.415
639 O 13.133 -7.361 -6.982 OW 207 WAT_207   -0.830
640 H1 13.550 -7.575 -7.817 HW 207 WAT_207    0.415
641 H2 13.857 -7.103 -6.411 HW 207 WAT_207    0.415
642 O 12.427 -6.556 -10.405 OW 208 WAT_208   -0.830
643 H1 12.779 -7.153 -11.065 HW 208 WAT_208    0.415
644 H2 11.543 -6.881 -10.234 HW 208 WAT_208    0.415
645 O 0.481 -10.771 -8.681 OW 209 WAT_209   -0.830
646 H1 1.053 -11.538 -8.681 HW 209 WAT_209    0.415
647 H2 0.481 -10.472 -9.590 HW 209 WAT_209    0.415
648 O 6.645 -5.702 -8.919 OW 210 WAT_210   -0.830
649 H1 6.348 -6.308 -9.598 HW 210 WAT_210    0.415
650 H2 7.595 -5.664 -9.030 HW 210 WAT_210    0.415
651 O 0.516 -7.323 -7.775 OW 211 WAT_211   -0.830
652 H1 0.594 -7.188 -8.720 HW 211 WAT_211    0.415
653 H2 1.130 -8.031 -7.583 HW 211 WAT_211    0.415
654 O 8.295 -10.059 -7.596 OW 212 WAT_212   -0.830
655 H1 8.662 -10.533 -6.849 HW 212 WAT_212    0.415
656 H2 8.106 -9.185 -7.255 HW 212 WAT_212    0.415
657 O 10.686 -4.922 -3.250 OW 213 WAT_213   -0.830
658 H1 10.700 -5.854 -3.469 HW 213 WAT_213    0.415
659 H2 9.978 -4.836 -2.612 HW 213 WAT_213    0.415
660 O 0.611 -3.137 -10.437 OW 214 WAT_214   -0.830
661 H1 0.941 -4.005 -10.669 HW 214 WAT_214    0.415
662 H2 1.040 -2.931 -9.606 HW 214 WAT_214    0.415
663 O 4.564 -9.093 -3.693 OW 215 WAT_215   -0.830
664 H1 4.424 -8.220 -3.324 HW 215 WAT_215    0.415
665 H2 3.682 -9.435 -3.838 HW 215 WAT_215    0.415
666 O 7.086 -3.303 -6.036 OW 216 WAT_216   -0.830
667 H1 6.845 -3.036 -6.923 HW 216 WAT_216    0.415
668 H2 8.026 -3.133 -5.981 HW 216 WAT_216    0.415
669 O 2.342 -12.866 -8.286 OW 217 WAT_217   -0.830
670 H1 3.023 -12.602 -7.667 HW 217 WAT_217    0.415
671 H2 2.027 -13.706 -7.952 HW 217 WAT_217    0.415
672 O 9.267 -0.520 -0.588 OW 218 WAT_218   -0.830
673 H1 10.193 -0.756 -0.544 HW 218 WAT_218    0.415
674 H2 9.252 0.307 -1.069 HW 218 WAT_218    0.415
675 O 6.535 -11.819 -9.199 OW 219 WAT_219   -0.830
676 H1 7.043 -11.321 -8.558 HW 219 WAT_219    0.415
677 H2 7.066 -12.596 -9.375 HW 219 WAT_219    0.415
678 O 10.119 -3.281 -6.156 OW 220 WAT_220   -0.830
679 H1 10.763 -3.075 -5.479 HW 220 WAT_220    0.415
680 H2 10.482 -4.042 -6.609 HW 220 WAT_220    0.415
681 O 11.578 -1.474 -4.458 OW 221 WAT_221   -0.830
682 H1 12.093 -1.563 -3.656 HW 221 WAT_221    0.415
683 H2 10.735 -1.128 -4.165 HW 221 WAT_221    0.415
684 O 0.572 -6.282 -5.236 OW 222 WAT_222   -0.830
685 H1 0.735 -6.751 -6.054 HW 222 WAT_222    0.415
686 H2 1.037 -6.789 -4.571 HW 222 WAT_222    0.415
687 O 4.144 -0.818 -9.843 OW 223 WAT_223   -0.830
688 H1 4.880 -1.366 -9.572 HW 223 WAT_223    0.415
689 H2 4.528 0.048 -9.982 HW 223 WAT_223    0.415
690 O 8.995 -4.429 -1.066 OW 224 WAT_224   -0.830
691 H1 8.674 -5.148 -0.522 HW 224 WAT_224    0.415
692 H2 8.321 -3.753 -0.993 HW 224 WAT_224    0.415
693 O 10.092 -8.643 -9.227 OW 225 WAT_225   -0.830
694 H1 9.316 -9.123 -8.937 HW 225 WAT_225    0.415
695 H2 10.743 -9.323 -9.401 HW 225 WAT_225    0.415
696 O 7.923 -7.739 -2.177 OW 226 WAT_226   -0.830
697 H1 7.158 -7.170 -2.262 HW 226 WAT_226    0.415
698 H2 8.105 -8.031 -3.070 HW 226 WAT_226    0.415
699 O 9.170 -11.542 -5.479 OW 227 WAT_227   -0.830
700 H1 9.669 -11.067 -4.814 HW 227 WAT_227    0.415
701 H2 9.313 -12.466 -5.272 HW 227 WAT_227    0.415
702 O 9.199 -1.442 -7.955 OW 228 WAT_228   -0.830
703 H1 9.487 -1.697 -8.831 HW 228 WAT_228    0.415
704 H2 9.712 -1.994 -7.364 HW 228 WAT_228    0.415
705 O 6.177 -9.389 -11.083 OW 229 WAT_229   -0.830
706 H1 5.772 -10.101 -11.578 HW 229 WAT_229    0.415
707 H2 6.263 -9.734 -10.194 HW 229 WAT_229    0.415
708 O 2.145 -6.906 -3.076 OW 230 WAT_230   -0.830
709 H1 1.761 -7.547 -2.478 HW 230 WAT_230    0.415
710 H2 2.457 -6.203 -2.507 HW 230 WAT_230    0.415
711 O 4.657 -7.144 -11.043 OW 231 WAT_231   -0.830
712 H1 5.175 -7.947 -11.097 HW 231 WAT_231    0.415
713 H2 4.205 -7.206 -10.201 HW 231 WAT_231    0.415
714 O 9.533 -5.968 -9.220 OW 232 WAT_232   -0.830
715 H1 9.464 -6.909 -9.381 HW 232 WAT_232    0.415
716 H2 10.295 -5.877 -8.648 HW 232 WAT_232    0.415
717 O 1.522 -12.462 -2.893 OW 233 WAT_233   -0.830
718 H1 0.627 -12.495 -2.554 HW 233 WAT_233    0.415
719 H2 2.061 -12.263 -2.128 HW 233 WAT_233    0.415
720 O 11.392 -5.277 -7.439 OW 234 WAT_234   -0.830
721 H1 12.034 -5.978 -7.325 HW 234 WAT_234    0.415
722 H2 11.917 -4.497 -7.619 HW 234 WAT_234    0.415
723 O 7.575 -11.129 -1.806 OW 235 WAT_235   -0.830
724 H1 7.479 -12.070 -1.956 HW 235 WAT_235    0.415
725 H2 8.418 -10.908 -2.201 HW 235 WAT_235    0.415
726 O 6.069 -7.540 -6.755 OW 236 WAT_236   -0.830
727 H1 5.736 -6.913 -6.113 HW 236 WAT_236    0.415
728 H2 6.245 -7.014 -7.535 HW 236 WAT_236    0.415
729 O 14.043 -12.175 -5.945 OW 237 WAT_237   -0.830
730 H1 13.630 -11.350 -5.691 HW 237 WAT_237    0.415
731 H2 13.311 -12.760 -6.137 HW 237 WAT_237    0.415
732 O 11.986 -5.525 -0.707 OW 238 WAT_238   -0.830
733 H1 11.380 -5.502 -1.447 HW 238 WAT_238    0.415
734 H2 11.681 -6.257 -0.170 HW 238 WAT_238    0.415
735 O 5.343 -9.719 -1.246 OW 239 WAT_239   -0.830
736 H1 5.043 -9.573 -2.143 HW 239 WAT_239    0.415
737 H2 6.114 -10.279 -1.339 HW 239 WAT_239    0.415
738 O 4.109 -8.331 -8.349 OW 240 WAT_240   -0.830
739 H1 3.277 -8.586 -7.950 HW 240 WAT_240    0.415
740 H2 4.717 -8.260 -7.614 HW 240 WAT_240    0.415
741 O 0.869 -9.146 -1.711 OW 241 WAT_241   -0.830
742 H1 1.373 -9.725 -1.139 HW 241 WAT_241    0.415
743 H2 0.130 -8.862 -1.173 HW 241 WAT_241    0.415
744 O 4.842 -12.424 -2.848 OW 242 WAT_242   -0.830
745 H1 4.312 -12.915 -3.476 HW 242 WAT_242    0.415
746 H2 5.511 -11.995 -3.382 HW 242 WAT_242    0.415
747 O 13.166 -4.478 -4.235 OW 243 WAT_243   -0.830
748 H1 13.502 -3.891 -3.557 HW 243 WAT_243    0.415
749 H2 12.246 -4.609 -4.005 HW 243 WAT_243    0.415
750 O -13.026 4.121 2.671 OW 244 WAT_244   -0.830
751 H1 -12.177 4.558 2.605 HW 244 WAT_244    0.415
752 H2 -13.393 4.433 3.499 HW 244 WAT_244    0.415
753 O -4.105 8.692 7.585 OW 245 WAT_245   -0.830
754 H1 -5.046 8.707 7.759 HW 245 WAT_245    0.415
755 H2 -3.791 7.906 8.031 HW 245 WAT_245    0.415
756 O -3.805 1.774 9.444 OW 246 WAT_246   -0.830
757 H1 -3.364 1.718 8.596 HW 246 WAT_246    0.415
758 H2 -4.074 2.690 9.515 HW 246 WAT_246    0.415
759 O -12.095 10.371 3.119 OW 247 WAT_247   -0.830
760 H1 -11.673 10.205 3.962 HW 247 WAT_247    0.415
761 H2 -11.970 9.561 2.625 HW 247 WAT_247    0.415
762 O -10.472 3.490 6.911 OW 248 WAT_248   -0.830
763 H1 -11.284 3.116 6.570 HW 248 WAT_248    0.415
764 H2 -9.968 2.735 7.213 HW 248 WAT_248    0.415
765 O -9.582 9.395 0.367 OW 249 WAT_249   -0.830
766 H1 -9.062 8.680 0.001 HW 249 WAT_249    0.415
767 H2 -8.935 10.033 0.667 HW 249 WAT_249    0.415
768 O -10.718 5.657 2.423 OW 250 WAT_250   -0.830
769 H1 -10.597 5.615 3.372 HW 250 WAT_250    0.415
770 H2 -11.103 6.519 2.268 HW 250 WAT_250    0.415
771 O -8.203 8.859 4.909 OW 251 WAT_251   -0.830
772 H1 -9.131 8.793 5.138 HW 251 WAT_251    0.415
773 H2 -8.051 9.797 4.795 HW 251 WAT_251    0.415
774 O -7.803 5.389 6.932 OW 252 WAT_252   -0.830
775 H1 -7.410 5.707 6.119 HW 252 WAT_252    0.415
776 H2 -7.442 4.511 7.046 HW 252 WAT_252    0.415
777 O -1.200 4.842 7.128 OW 253 WAT_253   -0.830
778 H1 -1.310 4.688 8.066 HW 253 WAT_253    0.415
779 H2 -0.439 4.314 6.886 HW 253 WAT_253    0.415
780 O -1.290 10.786 0.361 OW 254 WAT_254   -0.830
781 H1 -1.015 11.694 0.233 HW 254 WAT_254    0.415
782 H2 -1.479 10.722 1.298 HW 254 WAT_254    0.415
783 O -6.814 8.353 7.666 OW 255 WAT_255   -0.830
784 H1 -6.895 7.439 7.396 HW 255 WAT_255    0.415
785 H2 -7.228 8.850 6.960 HW 255 WAT_255    0.415
786 O -11.230 5.813 5.296 OW 256 WAT_256   -0.830
787 H1 -11.938 6.281 5.738 HW 256 WAT_256    0.415
788 H2 -10.945 5.155 5.931 HW 256 WAT_256    0.415
789 O -7.218 7.980 11.027 OW 257 WAT_257   -0.830
790 H1 -7.950 8.489 11.376 HW 257 WAT_257    0.415
791 H2 -7.615 7.163 10.726 HW 257 WAT_257    0.415
792 O -10.261 12.979 5.776 OW 258 WAT_258   -0.830
793 H1 -9.574 13.526 6.157 HW 258 WAT_258    0.415
794 H2 -11.048 13.523 5.811 HW 258 WAT_258    0.415
795 O -14.127 10.374 1.145 OW 259 WAT_259   -0.830
796 H1 -13.361 10.262 1.707 HW 259 WAT_259    0.415
797 H2 -14.049 9.678 0.493 HW 259 WAT_259    0.415
798 O -7.941 2.353 4.030 OW 260 WAT_260   -0.830
799 H1 -8.755 1.854 3.954 HW 260 WAT_260    0.415
800 H2 -8.135 3.193 3.613 HW 260 WAT_260    0.415
801 O -8.357 1.071 11.399 OW 261 WAT_261   -0.830
802 H1 -9.140 1.546 11.679 HW 261 WAT_261    0.415
803 H2 -8.651 0.167 11.291 HW 261 WAT_261    0.415
804 O -11.182 2.488 1.038 OW 262 WAT_262   -0.830
805 H1 -11.530 1.810 0.459 HW 262 WAT_262    0.415
806 H2 -10.981 2.027 1.853 HW 262 WAT_262    0.415
807 O -11.706 7.967 1.821 OW 263 WAT_263   -0.830
808 H1 -12.274 7.519 1.195 HW 263 WAT_263    0.415
809 H2 -10.997 8.326 1.288 HW 263 WAT_263    0.415
810 O -6.755 3.433 10.439 OW 264 WAT_264   -0.830
811 H1 -6.738 3.884 11.284 HW 264 WAT_264    0.415
812 H2 -7.004 2.534 10.653 HW 264 WAT_264    0.415
813 O -7.569 11.707 5.341 OW 265 WAT_265   -0.830
814 H1 -8.187 12.172 4.777 HW 265 WAT_265    0.415
815 H2 -7.056 12.399 5.758 HW 265 WAT_265    0.415
816 O -12.447 1.640 5.515 OW 266 WAT_266   -0.830
817 H1 -13.077 0.939 5.682 HW 266 WAT_266    0.415
818 H2 -12.986 2.401 5.299 HW 266 WAT_266    0.415
819 O -10.780 4.655 9.432 OW 267 WAT_267   -0.830
820 H1 -10.776 4.214 8.583 HW 267 WAT_267    0.415
821 H2 -9.885 4.977 9.539 HW 267 WAT_267    0.415
822 O -2.629 6.206 4.594 OW 268 WAT_268   -0.830
823 H1 -2.133 5.973 5.379 HW 268 WAT_268    0.415
824 H2 -2.827 5.367 4.178 HW 268 WAT_268    0.415
825 O -1.342 10.493 3.204 OW 269 WAT_269   -0.830
826 H1 -0.580 11.062 3.310 HW 269 WAT_269    0.415
827 H2 -1.327 9.925 3.975 HW 269 WAT_269    0.415
828 O -3.745 13.232 5.553 OW 270 WAT_270   -0.830
829 H1 -3.856 12.290 5.678 HW 270 WAT_270    0.415
830 H2 -3.749 13.594 6.439 HW 270 WAT_270    0.415
831 O -6.348 12.219 8.369 OW 271 WAT_271   -0.830
832 H1 -5.995 11.622 7.709 HW 271 WAT_271    0.415
833 H2 -7.231 11.893 8.540 HW 271 WAT_271    0.415
834 O -12.130 13.072 9.855 OW 272 WAT_272   -0.830
835 H1 -12.427 12.467 9.176 HW 272 WAT_272    0.415
836 H2 -11.180 13.110 9.744 HW 272 WAT_272    0.415
837 O -0.336 11.348 8.048 OW 273 WAT_273   -0.830
838 H1 0.035 10.564 7.642 HW 273 WAT_273    0.415
839 H2 0.304 12.037 7.870 HW 273 WAT_273    0.415
840 O -1.941 1.405 7.455 OW 274 WAT_274   -0.830
841 H1 -2.002 0.461 7.308 HW 274 WAT_274    0.415
842 H2 -1.162 1.513 8.000 HW 274 WAT_274    0.415
843 O -11.393 2.168 10.433 OW 275 WAT_275   -0.830
844 H1 -11.096 3.074 10.353 HW 275 WAT_275    0.415
845 H2 -10.845 1.680 9.819 HW 275 WAT_275    0.415
846 O -9.230 12.897 3.005 OW 276 WAT_276   -0.830
847 H1 -8.889 13.641 2.509 HW 276 WAT_276    0.415
848 H2 -10.059 13.210 3.367 HW 276 WAT_276    0.415
849 O -7.198 2.538 6.736 OW 277 WAT_277   -0.830
850 H1 -7.321 2.556 5.787 HW 277 WAT_277    0.415
851 H2 -6.250 2.586 6.856 HW 277 WAT_277    0.415
852 O -3.537 13.782 1.060 OW 278 WAT_278   -0.830
853 H1 -3.763 13.065 1.652 HW 278 WAT_278    0.415
854 H2 -3.927 13.533 0.222 HW 278 WAT_278    0.415
855 O -4.192 5.049 9.487 OW 279 WAT_279   -0.830
856 H1 -4.897 5.337 10.067 HW 279 WAT_279    0.415
857 H2 -3.831 5.859 9.127 HW 279 WAT_279    0.415
858 O -12.239 6.955 9.576 OW 280 WAT_280   -0.830
859 H1 -11.732 7.453 10.216 HW 280 WAT_280    0.415
860 H2 -11.708 6.178 9.400 HW 280 WAT_280    0.415
861 O -3.402 10.959 9.887 OW 281 WAT_281   -0.830
862 H1 -2.682 11.455 9.496 HW 281 WAT_281    0.415
863 H2 -3.604 10.281 9.242 HW 281 WAT_281    0.415
864 O -4.174 10.421 5.413 OW 282 WAT_282   -0.830
865 H1 -4.792 10.083 4.766 HW 282 WAT_282    0.415
866 H2 -4.191 9.777 6.121 HW 282 WAT_282    0.415
867 O -3.955 11.699 2.721 OW 283 WAT_283   -0.830
868 H1 -4.243 12.160 3.509 HW 283 WAT_283    0.415
869 H2 -3.160 11.239 2.989 HW 283 WAT_283    0.415
870 O -8.217 5.131 1.906 OW 284 WAT_284   -0.830
871 H1 -9.156 5.292 1.991 HW 284 WAT_284    0.415
872 H2 -7.898 5.849 1.360 HW 284 WAT_284    0.415
873 O -1.123 4.494 9.878 OW 285 WAT_285   -0.830
874 H1 -2.071 4.528 10.009 HW 285 WAT_285    0.415
875 H2 -0.798 5.308 10.263 HW 285 WAT_285    0.415
876 O -10.315 1.244 3.455 OW 286 WAT_286   -0.830
877 H1 -10.940 1.240 4.180 HW 286 WAT_286    0.415
878 H2 -10.402 0.378 3.059 HW 286 WAT_286    0.415
879 O -8.682 10.131 9.547 OW 287 WAT_287   -0.830
880 H1 -9.458 9.651 9.837 HW 287 WAT_287    0.415
881 H2 -8.031 9.452 9.373 HW 287 WAT_287    0.415
882 O -5.997 9.660 2.420 OW 288 WAT_288   -0.830
883 H1 -5.558 8.822 2.274 HW 288 WAT_288    0.415
884 H2 -5.284 10.293 2.507 HW 288 WAT_288    0.415
885 O -5.969 0.154 8.149 OW 289 WAT_289   -0.830
886 H1 -5.366 0.726 8.624 HW 289 WAT_289    0.415
887 H2 -6.710 0.718 7.927 HW 289 WAT_289    0.415
888 O -13.199 6.444 0.065 OW 290 WAT_290   -0.830
889 H1 -13.400 5.581 0.426 HW 290 WAT_290    0.415
890 H2 -13.370 6.358 -0.873 HW 290 WAT_290    0.415
891 O -6.410 6.753 4.902 OW 291 WAT_291   -0.830
892 H1 -7.009 7.477 4.718 HW 291 WAT_291    0.415
893 H2 -5.862 6.691 4.119 HW 291 WAT_291    0.415
894 O -10.959 9.983 5.389 OW 292 WAT_292   -0.830
895 H1 -10.502 10.794 5.615 HW 292 WAT_292    0.415
896 H2 -11.310 9.666 6.221 HW 292 WAT_292    0.415
897 O -10.592 0.794 8.173 OW 293 WAT_293   -0.830
898 H1 -10.284 0.239 7.457 HW 293 WAT_293    0.415
899 H2 -11.521 0.928 7.991 HW 293 WAT_293    0.415
900 O -12.598 9.385 7.691 OW 294 WAT_294   -0.830
901 H1 -13.002 8.673 7.196 HW 294 WAT_294    0.415
902 H2 -12.511 9.041 8.580 HW 294 WAT_294    0.415
903 O -1.695 9.812 11.884 OW 295 WAT_295   -0.830
904 H1 -2.523 9.882 11.409 HW 295 WAT_295    0.415
905 H2 -1.100 10.398 11.416 HW 295 WAT_295    0.415
906 O -7.763 11.412 1.223 OW 296 WAT_296   -0.830
907 H1 -8.312 11.859 1.867 HW 296 WAT_296    0.415
908 H2 -7.141 10.907 1.746 HW 296 WAT_296    0.415
909 O -11.003 12.350 0.618 OW 297 WAT_297   -0.830
910 H1 -11.108 11.735 1.345 HW 297 WAT_297    0.415
911 H2 -11.170 11.826 -0.165 HW 297 WAT_297    0.415
912 O -4.428 3.109 6.714 OW 298 WAT_298   -0.830
913 H1 -3.607 2.618 6.757 HW 298 WAT_298    0.415
914 H2 -4.395 3.699 7.467 HW 298 WAT_298    0.415
915 O -9.241 12.807 9.554 OW 299 WAT_299   -0.830
916 H1 -9.310 11.866 9.393 HW 299 WAT_299    0.415
917 H2 -8.479 12.897 10.127 HW 299 WAT_299    0.415
918 O -13.431 1.623 8.574 OW 300 WAT_300   -0.830
919 H1 -13.874 2.404 8.243 HW 300 WAT_300    0.415
920 H2 -12.872 1.946 9.282 HW 300 WAT_300    0.415
921 O -5.226 6.725 2.326 OW 301 WAT_301   -0.830
922 H1 -4.339 7.037 2.151 HW 301 WAT_301    0.415
923 H2 -5.256 5.852 1.934 HW 301 WAT_301    0.415
924 O -2.119 6.949 8.655 OW 302 WAT_302   -0.830
925 H1 -1.595 6.455 8.024 HW 302 WAT_302    0.415
926 H2 -1.533 7.084 9.400 HW 302 WAT_302    0.415
927 O -8.211 5.614 9.781 OW 303 WAT_303   -0.830
928 H1 -7.834 4.741 9.669 HW 303 WAT_303    0.415
929 H2 -8.309 5.950 8.890 HW 303 WAT_303    0.415
930 O -1.394 8.723 5.354 OW 304 WAT_304   -0.830
931 H1 -1.769 7.956 4.922 HW 304 WAT_304    0.415
932 H2 -2.123 9.105 5.842 HW 304 WAT_304    0.415
933 O -2.955 8.036 1.794 OW 305 WAT_305   -0.830
934 H1 -3.039 8.467 0.943 HW 305 WAT_305    0.415
935 H2 -2.236 8.496 2.226 HW 305 WAT_305    0.415
936 O -4.105 8.692 -11.190 OW 306 WAT_306   -0.830
937 H1 -5.046 8.707 -11.015 HW 306 WAT_306    0.415
938 H2 -3.791 7.906 -10.744 HW 306 WAT_306    0.415
939 O -1.878 10.493 -3.904 OW 307 WAT_307   -0.830
940 H1 -2.603 11.086 -4.101 HW 307 WAT_307    0.415
941 H2 -1.350 10.485 -4.702 HW 307 WAT_307    0.415
942 O -3.805 1.774 -9.330 OW 308 WAT_308   -0.830
943 H1 -3.364 1.718 -10.178 HW 308 WAT_308    0.415
944 H2 -4.074 2.690 -9.259 HW 308 WAT_308    0.415
945 O -3.353 12.731 -5.313 OW 309 WAT_309   -0.830
946 H1 -4.167 13.161 -5.050 HW 309 WAT_309    0.415
947 H2 -2.945 13.343 -5.926 HW 309 WAT_309    0.415
948 O -12.689 7.756 -5.277 OW 310 WAT_310   -0.830
949 H1 -12.994 8.636 -5.052 HW 310 WAT_310    0.415
950 H2 -11.735 7.816 -5.241 HW 310 WAT_310    0.415
951 O -6.564 4.578 -5.703 OW 311 WAT_311   -0.830
952 H1 -6.196 3.758 -5.375 HW 311 WAT_311    0.415
953 H2 -7.424 4.639 -5.287 HW 311 WAT_311    0.415
954 O -1.200 4.842 -11.646 OW 312 WAT_312   -0.830
955 H1 -1.310 4.688 -10.708 HW 312 WAT_312    0.415
956 H2 -0.439 4.314 -11.889 HW 312 WAT_312    0.415
957 O -6.814 8.353 -11.108 OW 313 WAT_313   -0.830
958 H1 -6.895 7.439 -11.379 HW 313 WAT_313    0.415
959 H2 -7.228 8.850 -11.814 HW 313 WAT_313    0.415
960 O -6.105 0.154 -6.314 OW 314 WAT_314   -0.830
961 H1 -6.979 0.488 -6.517 HW 314 WAT_314    0.415
962 H2 -6.214 -0.318 -5.489 HW 314 WAT_314    0.415
963 O -7.049 7.211 -1.367 OW 315 WAT_315   -0.830
964 H1 -6.723 6.378 -1.707 HW 315 WAT_315    0.415
965 H2 -6.261 7.734 -1.219 HW 315 WAT_315    0.415
966 O -6.845 1.591 -2.641 OW 316 WAT_316   -0.830
967 H1 -6.231 1.909 -3.303 HW 316 WAT_316    0.415
968 H2 -6.301 1.106 -2.022 HW 316 WAT_316    0.415
969 O -6.350 4.660 -2.240 OW 317 WAT_317   -0.830
970 H1 -7.039 3.998 -2.305 HW 317 WAT_317    0.415
971 H2 -5.630 4.214 -1.795 HW 317 WAT_317    0.415
972 O -8.020 11.030 -3.001 OW 318 WAT_318   -0.830
973 H1 -8.087 10.110 -3.255 HW 318 WAT_318    0.415
974 H2 -8.650 11.128 -2.286 HW 318 WAT_318    0.415
975 O -5.598 9.055 -5.154 OW 319 WAT_319   -0.830
976 H1 -6.124 9.579 -5.758 HW 319 WAT_319    0.415
977 H2 -5.255 9.688 -4.523 HW 319 WAT_319    0.415
978 O -7.218 7.980 -7.747 OW 320 WAT_320   -0.830
979 H1 -7.950 8.489 -7.398 HW 320 WAT_320    0.415
980 H2 -7.615 7.163 -8.048 HW 320 WAT_320    0.415
981 O -10.273 10.770 -5.114 OW 321 WAT_321   -0.830
982 H1 -9.854 11.613 -5.287 HW 321 WAT_321    0.415
983 H2 -11.192 10.907 -5.344 HW 321 WAT_321    0.415
984 O -1.058 13.598 -3.028 OW 322 WAT_322   -0.830
985 H1 -0.932 13.359 -3.946 HW 322 WAT_322    0.415
986 H2 -1.016 12.766 -2.555 HW 322 WAT_322    0.415
987 O -7.937 8.501 -3.731 OW 323 WAT_323   -0.830
988 H1 -7.817 7.905 -2.991 HW 323 WAT_323    0.415
989 H2 -7.077 8.538 -4.150 HW 323 WAT_323    0.415
990 O -8.357 1.071 -7.375 OW 324 WAT_324   -0.830
991 H1 -9.140 1.546 -7.095 HW 324 WAT_324    0.415
992 H2 -8.651 0.167 -7.484 HW 324 WAT_324    0.415
993 O -5.034 10.817 -3.084 OW 325 WAT_325   -0.830
994 H1 -4.620 10.972 -2.235 HW 325 WAT_325    0.415
995 H2 -5.969 10.943 -2.921 HW 325 WAT_325    0.415
996 O -13.885 6.160 -7.303 OW 326 WAT_326   -0.830
997 H1 -13.333 6.269 -8.078 HW 326 WAT_326    0.415
998 H2 -13.371 6.533 -6.588 HW 326 WAT_326    0.415
999 O -11.170 5.043 -2.473 OW 327 WAT_327   -0.830
1000 H1 -10.580 4.735 -1.785 HW 327 WAT_327    0.415
1001 H2 -11.988 4.571 -2.317 HW 327 WAT_327    0.415
1002 O -6.755 3.433 -8.335 OW 328 WAT_328   -0.830
1003 H1 -6.738 3.884 -7.491 HW 328 WAT_328    0.415
1004 H2 -7.004 2.534 -8.122 HW 328 WAT_328    0.415
1005 O -2.397 3.449 -4.636 OW 329 WAT_329   -0.830
1006 H1 -2.900 4.190 -4.297 HW 329 WAT_329    0.415
1007 H2 -1.582 3.837 -4.952 HW 329 WAT_329    0.415
1008 O -4.562 8.157 -1.080 OW 330 WAT_330   -0.830
1009 H1 -3.980 7.402 -1.168 HW 330 WAT_330    0.415
1010 H2 -4.386 8.688 -1.857 HW 330 WAT_330    0.415
1011 O -13.038 12.810 -2.268 OW 331 WAT_331   -0.830
1012 H1 -13.935 13.034 -2.021 HW 331 WAT_331    0.415
1013 H2 -13.012 12.934 -3.217 HW 331 WAT_331    0.415
1014 O -10.780 4.655 -9.342 OW 332 WAT_332   -0.830
1015 H1 -10.776 4.214 -10.192 HW 332 WAT_332    0.415
1016 H2 -9.885 4.977 -9.235 HW 332 WAT_332    0.415
1017 O -5.641 11.414 -6.982 OW 333 WAT_333   -0.830
1018 H1 -5.225 11.200 -7.817 HW 333 WAT_333    0.415
1019 H2 -4.917 11.671 -6.411 HW 333 WAT_333    0.415
1020 O -6.348 12.219 -10.405 OW 334 WAT_334   -0.830
1021 H1 -5.995 11.622 -11.065 HW 334 WAT_334    0.415
1022 H2 -7.231 11.893 -10.234 HW 334 WAT_334    0.415
1023 O -12.130 13.072 -8.919 OW 335 WAT_335   -0.830
1024 H1 -12.427 12.467 -9.598 HW 335 WAT_335    0.415
1025 H2 -11.180 13.110 -9.030 HW 335 WAT_335    0.415
1026 O -0.336 11.348 -10.726 OW 336 WAT_336   -0.830
1027 H1 0.035 10.564 -11.132 HW 336 WAT_336    0.415
1028 H2 0.304 12.037 -10.904 HW 336 WAT_336    0.415
1029 O -1.941 1.405 -11.319 OW 337 WAT_337   -0.830
1030 H1 -2.002 0.461 -11.466 HW 337 WAT_337    0.415
1031 H2 -1.162 1.513 -10.774 HW 337 WAT_337    0.415
1032 O -12.321 0.918 -0.824 OW 338 WAT_338   -0.830
1033 H1 -12.603 1.422 -1.588 HW 338 WAT_338    0.415
1034 H2 -11.939 0.121 -1.190 HW 338 WAT_338    0.415
1035 O -11.393 2.168 -8.341 OW 339 WAT_339   -0.830
1036 H1 -11.096 3.074 -8.422 HW 339 WAT_339    0.415
1037 H2 -10.845 1.680 -8.955 HW 339 WAT_339    0.415
1038 O -10.479 8.716 -7.596 OW 340 WAT_340   -0.830
1039 H1 -10.112 8.241 -6.849 HW 340 WAT_340    0.415
1040 H2 -10.669 9.590 -7.255 HW 340 WAT_340    0.415
1041 O -1.940 7.033 -6.597 OW 341 WAT_341   -0.830
1042 H1 -2.889 6.999 -6.483 HW 341 WAT_341    0.415
1043 H2 -1.758 7.943 -6.832 HW 341 WAT_341    0.415
1044 O -4.144 5.711 -3.467 OW 342 WAT_342   -0.830
1045 H1 -4.994 5.412 -3.146 HW 342 WAT_342    0.415
1046 H2 -4.303 5.955 -4.378 HW 342 WAT_342    0.415
1047 O -4.192 5.049 -9.287 OW 343 WAT_343   -0.830
1048 H1 -4.897 5.337 -8.707 HW 343 WAT_343    0.415
1049 H2 -3.831 5.859 -9.647 HW 343 WAT_343    0.415
1050 O -12.239 6.955 -9.199 OW 344 WAT_344   -0.830
1051 H1 -11.732 7.453 -8.558 HW 344 WAT_344    0.415
1052 H2 -11.708 6.178 -9.375 HW 344 WAT_344    0.415
1053 O -3.402 10.959 -8.888 OW 345 WAT_345   -0.830
1054 H1 -2.682 11.455 -9.278 HW 345 WAT_345    0.415
1055 H2 -3.604 10.281 -9.532 HW 345 WAT_345    0.415
1056 O -10.679 1.874 -5.736 OW 346 WAT_346   -0.830
1057 H1 -11.127 1.897 -6.581 HW 346 WAT_346    0.415
1058 H2 -11.312 1.476 -5.139 HW 346 WAT_346    0.415
1059 O -1.123 4.494 -8.897 OW 347 WAT_347   -0.830
1060 H1 -2.071 4.528 -8.765 HW 347 WAT_347    0.415
1061 H2 -0.798 5.308 -8.512 HW 347 WAT_347    0.415
1062 O -0.138 5.125 -5.496 OW 348 WAT_348   -0.830
1063 H1 -0.843 5.514 -6.014 HW 348 WAT_348    0.415
1064 H2 0.127 5.821 -4.894 HW 348 WAT_348    0.415
1065 O -9.494 4.140 -0.583 OW 349 WAT_349   -0.830
1066 H1 -10.184 3.947 0.052 HW 349 WAT_349    0.415
1067 H2 -8.751 4.424 -0.050 HW 349 WAT_349    0.415
1068 O -8.682 10.131 -9.227 OW 350 WAT_350   -0.830
1069 H1 -9.458 9.651 -8.937 HW 350 WAT_350    0.415
1070 H2 -8.031 9.452 -9.401 HW 350 WAT_350    0.415
1071 O -10.851 11.035 -2.177 OW 351 WAT_351   -0.830
1072 H1 -11.617 11.604 -2.262 HW 351 WAT_351    0.415
1073 H2 -10.670 10.743 -3.070 HW 351 WAT_351    0.415
1074 O -5.969 0.154 -10.625 OW 352 WAT_352   -0.830
1075 H1 -5.366 0.726 -10.150 HW 352 WAT_352    0.415
1076 H2 -6.710 0.718 -10.848 HW 352 WAT_352    0.415
1077 O -9.604 7.232 -5.479 OW 353 WAT_353   -0.830
1078 H1 -9.105 7.707 -4.814 HW 353 WAT_353    0.415
1079 H2 -9.462 6.309 -5.272 HW 353 WAT_353    0.415
1080 O -10.592 0.794 -10.601 OW 354 WAT_354   -0.830
1081 H1 -10.284 0.239 -11.317 HW 354 WAT_354    0.415
1082 H2 -11.521 0.928 -10.784 HW 354 WAT_354    0.415
1083 O -12.598 9.385 -11.083 OW 355 WAT_355   -0.830
1084 H1 -13.002 8.673 -11.578 HW 355 WAT_355    0.415
1085 H2 -12.511 9.041 -10.194 HW 355 WAT_355    0.415
1086 O -9.144 4.490 -4.596 OW 356 WAT_356   -0.830
1087 H1 -9.606 4.699 -3.784 HW 356 WAT_356    0.415
1088 H2 -9.546 3.676 -4.899 HW 356 WAT_356    0.415
1089 O -1.695 9.812 -6.890 OW 357 WAT_357   -0.830
1090 H1 -2.523 9.882 -7.365 HW 357 WAT_357    0.415
1091 H2 -1.100 10.398 -7.359 HW 357 WAT_357    0.415
1092 O -9.241 12.807 -9.220 OW 358 WAT_358   -0.830
1093 H1 -9.310 11.866 -9.381 HW 358 WAT_358    0.415
1094 H2 -8.479 12.897 -8.648 HW 358 WAT_358    0.415
1095 O -13.431 1.623 -10.200 OW 359 WAT_359   -0.830
1096 H1 -13.874 2.404 -10.531 HW 359 WAT_359    0.415
1097 H2 -12.872 1.946 -9.493 HW 359 WAT_359    0.415
1098 O -11.200 7.645 -1.806 OW 360 WAT_360   -0.830
1099 H1 -11.295 6.705 -1.956 HW 360 WAT_360    0.415
1100 H2 -10.356 7.867 -2.201 HW 360 WAT_360    0.415
1101 O -2.119 6.949 -10.119 OW 361 WAT_361   -0.830
1102 H1 -1.595 6.455 -10.750 HW 361 WAT_361    0.415
1103 H2 -1.533 7.084 -9.375 HW 361 WAT_361    0.415
1104 O -3.709 12.766 -1.619 OW 362 WAT_362   -0.830
1105 H1 -2.968 13.104 -2.123 HW 362 WAT_362    0.415
1106 H2 -4.472 12.935 -2.173 HW 362 WAT_362    0.415
1107 O -13.445 3.317 -2.768 OW 363 WAT_363   -0.830
1108 H1 -13.539 2.699 -3.493 HW 363 WAT_363    0.415
1109 H2 -14.025 4.043 -2.995 HW 363 WAT_363    0.415
1110 O -2.004 7.870 -3.786 OW 364 WAT_364   -0.830
1111 H1 -2.235 7.641 -4.686 HW 364 WAT_364    0.415
1112 H2 -1.743 8.790 -3.832 HW 364 WAT_364    0.415
1113 O -8.211 5.614 -8.993 OW 365 WAT_365   -0.830
1114 H1 -7.834 4.741 -9.106 HW 365 WAT_365    0.415
1115 H2 -8.309 5.950 -9.884 HW 365 WAT_365    0.415
1116 O -12.706 11.234 -6.755 OW 366 WAT_366   -0.830
1117 H1 -13.039 11.861 -6.113 HW 366 WAT_366    0.415
1118 H2 -12.529 11.761 -7.535 HW 366 WAT_366    0.415
1119 O -4.731 6.599 -5.945 OW 367 WAT_367   -0.830
1120 H1 -5.144 7.425 -5.691 HW 367 WAT_367    0.415
1121 H2 -5.463 6.014 -6.137 HW 367 WAT_367    0.415
1122 O -6.788 13.249 -0.707 OW 368 WAT_368   -0.830
1123 H1 -7.395 13.272 -1.447 HW 368 WAT_368    0.415
1124 H2 -7.093 12.517 -0.170 HW 368 WAT_368    0.415
1125 O -13.432 9.055 -1.246 OW 369 WAT_369   -0.830
1126 H1 -13.732 9.201 -2.143 HW 369 WAT_369    0.415
1127 H2 -12.660 8.496 -1.339 HW 369 WAT_369    0.415
1128 O -9.483 1.934 -2.281 OW 370 WAT_370   -0.830
1129 H1 -9.544 2.526 -1.531 HW 370 WAT_370    0.415
1130 H2 -8.543 1.827 -2.426 HW 370 WAT_370    0.415
1131 O -5.197 2.362 -4.930 OW 371 WAT_371   -0.830
1132 H1 -5.526 1.547 -5.310 HW 371 WAT_371    0.415
1133 H2 -4.249 2.319 -5.054 HW 371 WAT_371    0.415
1134 O -4.105 -10.082 7.585 OW 372 WAT_372   -0.830
1135 H1 -5.046 -10.067 7.759 HW 372 WAT_372    0.415
1136 H2 -3.791 -10.868 8.031 HW 372 WAT_372    0.415
1137 O -12.095 -8.403 3.119 OW 373 WAT_373   -0.830
1138 H1 -11.673 -8.569 3.962 HW 373 WAT_373    0.415
1139 H2 -11.970 -9.213 2.625 HW 373 WAT_373    0.415
1140 O -5.040 -2.264 10.464 OW 374 WAT_374   -0.830
1141 H1 -5.027 -2.667 9.596 HW 374 WAT_374    0.415
1142 H2 -5.593 -1.489 10.360 HW 374 WAT_374    0.415
1143 O -9.582 -9.380 0.367 OW 375 WAT_375   -0.830
1144 H1 -9.062 -10.095 0.001 HW 375 WAT_375    0.415
1145 H2 -8.935 -8.741 0.667 HW 375 WAT_375    0.415
1146 O -10.718 -13.118 2.423 OW 376 WAT_376   -0.830
1147 H1 -10.597 -13.159 3.372 HW 376 WAT_376    0.415
1148 H2 -11.103 -12.255 2.268 HW 376 WAT_376    0.415
1149 O -8.203 -9.915 4.909 OW 377 WAT_377   -0.830
1150 H1 -9.131 -9.982 5.138 HW 377 WAT_377    0.415
1151 H2 -8.051 -8.977 4.795 HW 377 WAT_377    0.415
1152 O -8.435 -1.952 7.948 OW 378 WAT_378   -0.830
1153 H1 -9.054 -1.496 7.377 HW 378 WAT_378    0.415
1154 H2 -7.580 -1.796 7.547 HW 378 WAT_378    0.415
1155 O -6.814 -10.421 7.666 OW 379 WAT_379   -0.830
1156 H1 -6.895 -11.336 7.396 HW 379 WAT_379    0.415
1157 H2 -7.228 -9.925 6.960 HW 379 WAT_379    0.415
1158 O -11.230 -12.962 5.296 OW 380 WAT_380   -0.830
1159 H1 -11.938 -12.493 5.738 HW 380 WAT_380    0.415
1160 H2 -10.945 -13.620 5.931 HW 380 WAT_380    0.415
1161 O -11.521 -1.645 0.754 OW 381 WAT_381   -0.830
1162 H1 -10.728 -1.356 0.302 HW 381 WAT_381    0.415
1163 H2 -12.040 -2.076 0.075 HW 381 WAT_381    0.415
1164 O -11.738 -3.583 2.651 OW 382 WAT_382   -0.830
1165 H1 -11.747 -2.850 2.036 HW 382 WAT_382    0.415
1166 H2 -12.658 -3.829 2.744 HW 382 WAT_382    0.415
1167 O -12.314 -2.333 9.993 OW 383 WAT_383   -0.830
1168 H1 -11.798 -2.944 9.468 HW 383 WAT_383    0.415
1169 H2 -11.665 -1.830 10.484 HW 383 WAT_383    0.415
1170 O -7.218 -10.794 11.027 OW 384 WAT_384   -0.830
1171 H1 -7.950 -10.286 11.376 HW 384 WAT_384    0.415
1172 H2 -7.615 -11.611 10.726 HW 384 WAT_384    0.415
1173 O -2.744 -0.642 10.818 OW 385 WAT_385   -0.830
1174 H1 -3.204 0.110 10.444 HW 385 WAT_385    0.415
1175 H2 -3.373 -1.361 10.759 HW 385 WAT_385    0.415
1176 O -10.261 -5.796 5.776 OW 386 WAT_386   -0.830
1177 H1 -9.574 -5.249 6.157 HW 386 WAT_386    0.415
1178 H2 -11.048 -5.252 5.811 HW 386 WAT_386    0.415
1179 O -14.127 -8.400 1.145 OW 387 WAT_387   -0.830
1180 H1 -13.361 -8.512 1.707 HW 387 WAT_387    0.415
1181 H2 -14.049 -9.096 0.493 HW 387 WAT_387    0.415
1182 O -8.752 -3.520 1.314 OW 388 WAT_388   -0.830
1183 H1 -8.651 -3.723 0.384 HW 388 WAT_388    0.415
1184 H2 -9.652 -3.774 1.519 HW 388 WAT_388    0.415
1185 O -11.706 -10.808 1.821 OW 389 WAT_389   -0.830
1186 H1 -12.274 -11.256 1.195 HW 389 WAT_389    0.415
1187 H2 -10.997 -10.448 1.288 HW 389 WAT_389    0.415
1188 O -5.953 -2.053 6.379 OW 390 WAT_390   -0.830
1189 H1 -5.497 -2.834 6.693 HW 390 WAT_390    0.415
1190 H2 -5.614 -1.342 6.923 HW 390 WAT_390    0.415
1191 O -7.569 -7.068 5.341 OW 391 WAT_391   -0.830
1192 H1 -8.187 -6.603 4.777 HW 391 WAT_391    0.415
1193 H2 -7.056 -6.375 5.758 HW 391 WAT_391    0.415
1194 O -2.629 -12.568 4.594 OW 392 WAT_392   -0.830
1195 H1 -2.133 -12.801 5.379 HW 392 WAT_392    0.415
1196 H2 -2.827 -13.407 4.178 HW 392 WAT_392    0.415
1197 O -1.342 -8.282 3.204 OW 393 WAT_393   -0.830
1198 H1 -0.580 -7.712 3.310 HW 393 WAT_393    0.415
1199 H2 -1.327 -8.849 3.975 HW 393 WAT_393    0.415
1200 O -3.745 -5.542 5.553 OW 394 WAT_394   -0.830
1201 H1 -3.856 -6.485 5.678 HW 394 WAT_394    0.415
1202 H2 -3.749 -5.180 6.439 HW 394 WAT_394    0.415
1203 O -6.348 -6.556 8.369 OW 395 WAT_395   -0.830
1204 H1 -5.995 -7.153 7.709 HW 395 WAT_395    0.415
1205 H2 -7.231 -6.881 8.540 HW 395 WAT_395    0.415
1206 O -12.130 -5.702 9.855 OW 396 WAT_396   -0.830
1207 H1 -12.427 -6.308 9.176 HW 396 WAT_396    0.415
1208 H2 -11.180 -5.664 9.744 HW 396 WAT_396    0.415
1209 O -0.336 -7.427 8.048 OW 397 WAT_397   -0.830
1210 H1 0.035 -8.210 7.642 HW 397 WAT_397    0.415
1211 H2 0.304 -6.738 7.870 HW 397 WAT_397    0.415
1212 O -13.567 -4.806 5.998 OW 398 WAT_398   -0.830
1213 H1 -13.868 -4.930 6.898 HW 398 WAT_398    0.415
1214 H2 -13.673 -5.665 5.590 HW 398 WAT_398    0.415
1215 O -9.230 -5.877 3.005 OW 399 WAT_399   -0.830
1216 H1 -8.889 -5.133 2.509 HW 399 WAT_399    0.415
1217 H2 -10.059 -5.564 3.367 HW 399 WAT_399    0.415
1218 O -12.742 -1.408 5.522 OW 400 WAT_400   -0.830
1219 H1 -12.918 -2.325 5.309 HW 400 WAT_400    0.415
1220 H2 -13.596 -1.050 5.762 HW 400 WAT_400    0.415
1221 O -4.192 -13.726 9.487 OW 401 WAT_401   -0.830
1222 H1 -4.897 -13.437 10.067 HW 401 WAT_401    0.415
1223 H2 -3.831 -12.915 9.127 HW 401 WAT_401    0.415
1224 O -12.239 -11.819 9.576 OW 402 WAT_402   -0.830
1225 H1 -11.732 -11.321 10.216 HW 402 WAT_402    0.415
1226 H2 -11.708 -12.596 9.400 HW 402 WAT_402    0.415
1227 O -3.402 -7.815 9.887 OW 403 WAT_403   -0.830
1228 H1 -2.682 -7.320 9.496 HW 403 WAT_403    0.415
1229 H2 -3.604 -8.493 9.242 HW 403 WAT_403    0.415
1230 O -4.174 -8.353 5.413 OW 404 WAT_404   -0.830
1231 H1 -4.792 -8.691 4.766 HW 404 WAT_404    0.415
1232 H2 -4.191 -8.997 6.121 HW 404 WAT_404    0.415
1233 O -4.661 -4.237 8.327 OW 405 WAT_405   -0.830
1234 H1 -5.123 -5.009 8.656 HW 405 WAT_405    0.415
1235 H2 -3.849 -4.211 8.833 HW 405 WAT_405    0.415
1236 O -8.217 -13.644 1.906 OW 406 WAT_406   -0.830
1237 H1 -9.156 -13.482 1.991 HW 406 WAT_406    0.415
1238 H2 -7.898 -12.925 1.360 HW 406 WAT_406    0.415
1239 O -7.888 -4.175 6.388 OW 407 WAT_407   -0.830
1240 H1 -7.448 -3.433 5.974 HW 407 WAT_407    0.415
1241 H2 -7.949 -3.932 7.312 HW 407 WAT_407    0.415
1242 O -13.430 -0.588 2.737 OW 408 WAT_408   -0.830
1243 H1 -12.699 -0.872 2.190 HW 408 WAT_408    0.415
1244 H2 -13.171 -0.827 3.627 HW 408 WAT_408    0.415
1245 O -8.682 -8.643 9.547 OW 409 WAT_409   -0.830
1246 H1 -9.458 -9.123 9.837 HW 409 WAT_409    0.415
1247 H2 -8.031 -9.323 9.373 HW 409 WAT_409    0.415
1248 O -5.997 -9.115 2.420 OW 410 WAT_410   -0.830
1249 H1 -5.558 -9.952 2.274 HW 410 WAT_410    0.415
1250 H2 -5.284 -8.482 2.507 HW 410 WAT_410    0.415
1251 O -13.199 -12.330 0.065 OW 411 WAT_411   -0.830
1252 H1 -13.400 -13.193 0.426 HW 411 WAT_411    0.415
1253 H2 -13.370 -12.417 -0.873 HW 411 WAT_411    0.415
1254 O -6.410 -12.021 4.902 OW 412 WAT_412   -0.830
1255 H1 -7.009 -11.298 4.718 HW 412 WAT_412    0.415
1256 H2 -5.862 -12.084 4.119 HW 412 WAT_412    0.415
1257 O -9.575 -1.442 10.820 OW 413 WAT_413   -0.830
1258 H1 -9.287 -1.697 9.943 HW 413 WAT_413    0.415
1259 H2 -9.063 -1.994 11.410 HW 413 WAT_413    0.415
1260 O -10.959 -8.791 5.389 OW 414 WAT_414   -0.830
1261 H1 -10.502 -7.981 5.615 HW 414 WAT_414    0.415
1262 H2 -11.310 -9.109 6.221 HW 414 WAT_414    0.415
1263 O -12.598 -9.389 7.691 OW 415 WAT_415   -0.830
1264 H1 -13.002 -10.101 7.196 HW 415 WAT_415    0.415
1265 H2 -12.511 -9.734 8.580 HW 415 WAT_415    0.415
1266 O -1.695 -8.962 11.884 OW 416 WAT_416   -0.830
1267 H1 -2.523 -8.893 11.409 HW 416 WAT_416    0.415
1268 H2 -1.100 -8.376 11.416 HW 416 WAT_416    0.415
1269 O -7.763 -7.363 1.223 OW 417 WAT_417   -0.830
1270 H1 -8.312 -6.916 1.867 HW 417 WAT_417    0.415
1271 H2 -7.141 -7.868 1.746 HW 417 WAT_417    0.415
1272 O -11.003 -6.425 0.618 OW 418 WAT_418   -0.830
1273 H1 -11.108 -7.039 1.345 HW 418 WAT_418    0.415
1274 H2 -11.170 -6.948 -0.165 HW 418 WAT_418    0.415
1275 O -9.241 -5.968 9.554 OW 419 WAT_419   -0.830
1276 H1 -9.310 -6.909 9.393 HW 419 WAT_419    0.415
1277 H2 -8.479 -5.877 10.127 HW 419 WAT_419    0.415
1278 O -7.382 -5.277 11.336 OW 420 WAT_420   -0.830
1279 H1 -6.740 -5.978 11.449 HW 420 WAT_420    0.415
1280 H2 -6.857 -4.497 11.155 HW 420 WAT_420    0.415
1281 O -5.226 -12.049 2.326 OW 421 WAT_421   -0.830
1282 H1 -4.339 -11.738 2.151 HW 421 WAT_421    0.415
1283 H2 -5.256 -12.922 1.934 HW 421 WAT_421    0.415
1284 O -2.119 -11.826 8.655 OW 422 WAT_422   -0.830
1285 H1 -1.595 -12.319 8.024 HW 422 WAT_422    0.415
1286 H2 -1.533 -11.691 9.400 HW 422 WAT_422    0.415
1287 O -10.110 -1.001 6.009 OW 423 WAT_423   -0.830
1288 H1 -9.856 -1.039 5.087 HW 423 WAT_423    0.415
1289 H2 -11.059 -1.128 6.001 HW 423 WAT_423    0.415
1290 O -1.394 -10.051 5.354 OW 424 WAT_424   -0.830
1291 H1 -1.769 -10.819 4.922 HW 424 WAT_424    0.415
1292 H2 -2.123 -9.669 5.842 HW 424 WAT_424    0.415
1293 O -3.295 -1.291 6.988 OW 425 WAT_425   -0.830
1294 H1 -2.699 -1.613 6.312 HW 425 WAT_425    0.415
1295 H2 -3.037 -1.764 7.779 HW 425 WAT_425    0.415
1296 O -2.576 -4.108 11.750 OW 426 WAT_426   -0.830
1297 H1 -3.260 -3.438 11.741 HW 426 WAT_426    0.415
1298 H2 -2.036 -3.910 10.984 HW 426 WAT_426    0.415
1299 O -9.017 -1.299 2.657 OW 427 WAT_427   -0.830
1300 H1 -8.122 -0.960 2.679 HW 427 WAT_427    0.415
1301 H2 -8.986 -2.021 2.029 HW 427 WAT_427    0.415
1302 O -2.103 -2.911 9.260 OW 428 WAT_428   -0.830
1303 H1 -1.978 -2.088 9.732 HW 428 WAT_428    0.415
1304 H2 -1.236 -3.122 8.912 HW 428 WAT_428    0.415
1305 O -2.955 -10.738 1.794 OW 429 WAT_429   -0.830
1306 H1 -3.039 -10.307 0.943 HW 429 WAT_429    0.415
1307 H2 -2.236 -10.278 2.226 HW 429 WAT_429    0.415
1308 O -4.105 -10.082 -11.190 OW 430 WAT_430   -0.830
1309 H1 -5.046 -10.067 -11.015 HW 430 WAT_430    0.415
1310 H2 -3.791 -10.868 -10.744 HW 430 WAT_430    0.415
1311 O -1.878 -8.282 -3.904 OW 431 WAT_431   -0.830
1312 H1 -2.603 -7.689 -4.101 HW 431 WAT_431    0.415
1313 H2 -1.350 -8.289 -4.702 HW 431 WAT_431    0.415
1314 O -5.040 -2.264 -8.310 OW 432 WAT_432   -0.830
1315 H1 -5.027 -2.667 -9.178 HW 432 WAT_432    0.415
1316 H2 -5.593 -1.489 -8.414 HW 432 WAT_432    0.415
1317 O -3.353 -6.043 -5.313 OW 433 WAT_433   -0.830
1318 H1 -4.167 -5.613 -5.050 HW 433 WAT_433    0.415
1319 H2 -2.945 -5.431 -5.926 HW 433 WAT_433    0.415
1320 O -12.689 -11.018 -5.277 OW 434 WAT_434   -0.830
1321 H1 -12.994 -10.139 -5.052 HW 434 WAT_434    0.415
1322 H2 -11.735 -10.958 -5.241 HW 434 WAT_434    0.415
1323 O -8.435 -1.952 -10.827 OW 435 WAT_435   -0.830
1324 H1 -9.054 -1.496 -11.397 HW 435 WAT_435    0.415
1325 H2 -7.580 -1.796 -11.228 HW 435 WAT_435    0.415
1326 O -9.566 -0.464 -3.740 OW 436 WAT_436   -0.830
1327 H1 -9.640 0.439 -3.433 HW 436 WAT_436    0.415
1328 H2 -10.468 -0.783 -3.768 HW 436 WAT_436    0.415
1329 O -6.814 -10.421 -11.108 OW 437 WAT_437   -0.830
1330 H1 -6.895 -11.336 -11.379 HW 437 WAT_437    0.415
1331 H2 -7.228 -9.925 -11.814 HW 437 WAT_437    0.415
1332 O -7.049 -11.563 -1.367 OW 438 WAT_438   -0.830
1333 H1 -6.723 -12.397 -1.707 HW 438 WAT_438    0.415
1334 H2 -6.261 -11.040 -1.219 HW 438 WAT_438    0.415
1335 O -12.413 -3.151 -1.484 OW 439 WAT_439   -0.830
1336 H1 -12.441 -2.746 -2.351 HW 439 WAT_439    0.415
1337 H2 -12.576 -4.079 -1.647 HW 439 WAT_439    0.415
1338 O -12.314 -2.333 -8.782 OW 440 WAT_440   -0.830
1339 H1 -11.798 -2.944 -9.307 HW 440 WAT_440    0.415
1340 H2 -11.665 -1.830 -8.291 HW 440 WAT_440    0.415
1341 O -8.020 -7.744 -3.001 OW 441 WAT_441   -0.830
1342 H1 -8.087 -8.665 -3.255 HW 441 WAT_441    0.415
1343 H2 -8.650 -7.647 -2.286 HW 441 WAT_441    0.415
1344 O -5.598 -9.719 -5.154 OW 442 WAT_442   -0.830
1345 H1 -6.124 -9.195 -5.758 HW 442 WAT_442    0.415
1346 H2 -5.255 -9.087 -4.523 HW 442 WAT_442    0.415
1347 O -7.218 -10.794 -7.747 OW 443 WAT_443   -0.830
1348 H1 -7.950 -10.286 -7.398 HW 443 WAT_443    0.415
1349 H2 -7.615 -11.611 -8.048 HW 443 WAT_443    0.415
1350 O -10.273 -8.005 -5.114 OW 444 WAT_444   -0.830
1351 H1 -9.854 -7.162 -5.287 HW 444 WAT_444    0.415
1352 H2 -11.192 -7.868 -5.344 HW 444 WAT_444    0.415
1353 O -2.744 -0.642 -7.956 OW 445 WAT_445   -0.830
1354 H1 -3.204 0.110 -8.331 HW 445 WAT_445    0.415
1355 H2 -3.373 -1.361 -8.015 HW 445 WAT_445    0.415
1356 O -7.937 -10.273 -3.731 OW 446 WAT_446   -0.830
1357 H1 -7.817 -10.869 -2.991 HW 446 WAT_446    0.415
1358 H2 -7.077 -10.236 -4.150 HW 446 WAT_446    0.415
1359 O -5.034 -7.957 -3.084 OW 447 WAT_447   -0.830
1360 H1 -4.620 -7.802 -2.235 HW 447 WAT_447    0.415
1361 H2 -5.969 -7.831 -2.921 HW 447 WAT_447    0.415
1362 O -13.885 -12.615 -7.303 OW 448 WAT_448   -0.830
1363 H1 -13.333 -12.505 -8.078 HW 448 WAT_448    0.415
1364 H2 -13.371 -12.241 -6.588 HW 448 WAT_448    0.415
1365 O -4.562 -10.617 -1.080 OW 449 WAT_449   -0.830
1366 H1 -3.980 -11.372 -1.168 HW 449 WAT_449    0.415
1367 H2 -4.386 -10.087 -1.857 HW 449 WAT_449    0.415
1368 O -13.038 -5.964 -2.268 OW 450 WAT_450   -0.830
1369 H1 -13.935 -5.740 -2.021 HW 450 WAT_450    0.415
1370 H2 -13.012 -5.841 -3.217 HW 450 WAT_450    0.415
1371 O -4.041 -2.129 -5.257 OW 451 WAT_451   -0.830
1372 H1 -4.518 -1.322 -5.449 HW 451 WAT_451    0.415
1373 H2 -4.725 -2.781 -5.104 HW 451 WAT_451    0.415
1374 O -5.641 -7.361 -6.982 OW 452 WAT_452   -0.830
1375 H1 -5.225 -7.575 -7.817 HW 452 WAT_452    0.415
1376 H2 -4.917 -7.103 -6.411 HW 452 WAT_452    0.415
1377 O -6.348 -6.556 -10.405 OW 453 WAT_453   -0.830
1378 H1 -5.995 -7.153 -11.065 HW 453 WAT_453    0.415
1379 H2 -7.231 -6.881 -10.234 HW 453 WAT_453    0.415
1380 O -12.130 -5.702 -8.919 OW 454 WAT_454   -0.830
1381 H1 -12.427 -6.308 -9.598 HW 454 WAT_454    0.415
1382 H2 -11.180 -5.664 -9.030 HW 454 WAT_454    0.415
1383 O -0.336 -7.427 -10.726 OW 455 WAT_455   -0.830
1384 H1 0.035 -8.210 -11.132 HW 455 WAT_455    0.415
1385 H2 0.304 -6.738 -10.904 HW 455 WAT_455    0.415
1386 O -10.479 -10.059 -7.596 OW 456 WAT_456   -0.830
1387 H1 -10.112 -10.533 -6.849 HW 456 WAT_456    0.415
1388 H2 -10.669 -9.185 -7.255 HW 456 WAT_456    0.415
1389 O -1.940 -11.742 -6.597 OW 457 WAT_457   -0.830
1390 H1 -2.889 -11.775 -6.483 HW 457 WAT_457    0.415
1391 H2 -1.758 -10.832 -6.832 HW 457 WAT_457    0.415
1392 O -4.144 -13.063 -3.467 OW 458 WAT_458   -0.830
1393 H1 -4.994 -13.363 -3.146 HW 458 WAT_458    0.415
1394 H2 -4.303 -12.819 -4.378 HW 458 WAT_458    0.415
1395 O -8.089 -4.922 -3.250 OW 459 WAT_459   -0.830
1396 H1 -8.074 -5.854 -3.469 HW 459 WAT_459    0.415
1397 H2 -8.796 -4.836 -2.612 HW 459 WAT_459    0.415
1398 O -4.192 -13.726 -9.287 OW 460 WAT_460   -0.830
1399 H1 -4.897 -13.437 -8.707 HW 460 WAT_460    0.415
1400 H2 -3.831 -12.915 -9.647 HW 460 WAT_460    0.415
1401 O -11.688 -3.303 -6.036 OW 461 WAT_461   -0.830
1402 H1 -11.929 -3.036 -6.923 HW 461 WAT_461    0.415
1403 H2 -10.748 -3.133 -5.981 HW 461 WAT_461    0.415
1404 O -9.508 -0.520 -0.588 OW 462 WAT_462   -0.830
1405 H1 -8.581 -0.756 -0.544 HW 462 WAT_462    0.415
1406 H2 -9.523 0.307 -1.069 HW 462 WAT_462    0.415
1407 O -12.239 -11.819 -9.199 OW 463 WAT_463   -0.830
1408 H1 -11.732 -11.321 -8.558 HW 463 WAT_463    0.415
1409 H2 -11.708 -12.596 -9.375 HW 463 WAT_463    0.415
1410 O -3.402 -7.815 -8.888 OW 464 WAT_464   -0.830
1411 H1 -2.682 -7.320 -9.278 HW 464 WAT_464    0.415
1412 H2 -3.604 -8.493 -9.532 HW 464 WAT_464    0.415
1413 O -4.661 -4.237 -10.447 OW 465 WAT_465   -0.830
1414 H1 -5.123 -5.009 -10.118 HW 465 WAT_465    0.415
1415 H2 -3.849 -4.211 -9.942 HW 465 WAT_465    0.415
1416 O -8.655 -3.281 -6.156 OW 466 WAT_466   -0.830
1417 H1 -8.011 -3.075 -5.479 HW 466 WAT_466    0.415
1418 H2 -8.292 -4.042 -6.609 HW 466 WAT_466    0.415
1419 O -0.138 -13.649 -5.496 OW 467 WAT_467   -0.830
1420 H1 -0.843 -13.261 -6.014 HW 467 WAT_467    0.415
1421 H2 0.127 -12.954 -4.894 HW 467 WAT_467    0.415
1422 O -9.780 -4.429 -1.066 OW 468 WAT_468   -0.830
1423 H1 -10.100 -5.148 -0.522 HW 468 WAT_468    0.415
1424 H2 -10.454 -3.753 -0.993 HW 468 WAT_468    0.415
1425 O -8.682 -8.643 -9.227 OW 469 WAT_469   -0.830
1426 H1 -9.458 -9.123 -8.937 HW 469 WAT_469    0.415
1427 H2 -8.031 -9.323 -9.401 HW 469 WAT_469    0.415
1428 O -10.851 -7.739 -2.177 OW 470 WAT_470   -0.830
1429 H1 -11.617 -7.170 -2.262 HW 470 WAT_470    0.415
1430 H2 -10.670 -8.031 -3.070 HW 470 WAT_470    0.415
1431 O -9.604 -11.542 -5.479 OW 471 WAT_471   -0.830
1432 H1 -9.105 -11.067 -4.814 HW 471 WAT_471    0.415
1433 H2 -9.462 -12.466 -5.272 HW 471 WAT_471    0.415
1434 O -9.575 -1.442 -7.955 OW 472 WAT_472   -0.830
1435 H1 -9.287 -1.697 -8.831 HW 472 WAT_472    0.415
1436 H2 -9.063 -1.994 -7.364 HW 472 WAT_472    0.415
1437 O -12.598 -9.389 -11.083 OW 473 WAT_473   -0.830
1438 H1 -13.002 -10.101 -11.578 HW 473 WAT_473    0.415
1439 H2 -12.511 -9.734 -10.194 HW 473 WAT_473    0.415
1440 O -1.695 -8.962 -6.890 OW 474 WAT_474   -0.830
1441 H1 -2.523 -8.893 -7.365 HW 474 WAT_474    0.415
1442 H2 -1.100 -8.376 -7.359 HW 474 WAT_474    0.415
1443 O -9.241 -5.968 -9.220 OW 475 WAT_475   -0.830
1444 H1 -9.310 -6.909 -9.381 HW 475 WAT_475    0.415
1445 H2 -8.479 -5.877 -8.648 HW 475 WAT_475    0.415
1446 O -7.382 -5.277 -7.439 OW 476 WAT_476   -0.830
1447 H1 -6.740 -5.978 -7.325 HW 476 WAT_476    0.415
1448 H2 -6.857 -4.497 -7.619 HW 476 WAT_476    0.415
1449 O -11.200 -11.129 -1.806 OW 477 WAT_477   -0.830
1450 H1 -11.295 -12.070 -1.956 HW 477 WAT_477    0.415
1451 H2 -10.356 -10.908 -2.201 HW 477 WAT_477    0.415
1452 O -2.119 -11.826 -10.119 OW 478 WAT_478   -0.830
1453 H1 -1.595 -12.319 -10.750 HW 478 WAT_478    0.415
1454 H2 -1.533 -11.691 -9.375 HW 478 WAT_478    0.415
1455 O -2.004 -10.904 -3.786 OW 479 WAT_479   -0.830
1456 H1 -2.235 -11.133 -4.686 HW 479 WAT_479    0.415
1457 H2 -1.743 -9.984 -3.832 HW 479 WAT_479    0.415
1458 O -12.706 -7.540 -6.755 OW 480 WAT_480   -0.830
1459 H1 -13.039 -6.913 -6.113 HW 480 WAT_480    0.415
1460 H2 -12.529 -7.014 -7.535 HW 480 WAT_480    0.415
1461 O -2.576 -4.108 -7.025 OW 481 WAT_481   -0.830
1462 H1 -3.260 -3.438 -7.033 HW 481 WAT_481    0.415
1463 H2 -2.036 -3.910 -7.790 HW 481 WAT_481    0.415
1464 O -4.731 -12.175 -5.945 OW 482 WAT_482   -0.830
1465 H1 -5.144 -11.350 -5.691 HW 482 WAT_482    0.415
1466 H2 -5.463 -12.760 -6.137 HW 482 WAT_482    0.415
1467 O -13.432 -9.719 -1.246 OW 483 WAT_483   -0.830
1468 H1 -13.732 -9.573 -2.143 HW 483 WAT_483    0.415
1469 H2 -12.660 -10.279 -1.339 HW 483 WAT_483    0.415
1470 O -2.103 -2.911 -9.514 OW 484 WAT_484   -0.830
1471 H1 -1.978 -2.088 -9.042 HW 484 WAT_484    0.415
1472 H2 -1.236 -3.122 -9.862 HW 484 WAT_484    0.415
1473 O -12.422 -1.700 -3.999 OW 485 WAT_485   -0.830
1474 H1 -12.960 -0.975 -4.318 HW 485 WAT_485    0.415
1475 H2 -12.169 -2.177 -4.789 HW 485 WAT_485    0.415
@<TRIPOS>BOND
1 2 1 1 
2 3 2 1 
3 4 2 1 
4 5 2 1 
5 6 5 1 
6 7 5 1 
7 8 7 1 
8 9 22 1 
9 9 7 1 
10 10 9 1 
11 11 9 1 
12 12 11 1 
13 13 11 1 
14 14 20 1 
15 14 11 1 
16 15 14 1 
17 16 15 1 
18 17 16 1 
19 18 19 1 
20 18 20 1 
21 18 16 1 
22 21 20 1 
23 23 22 1 
24 24 22 1 
25 25 24 1 
26 26 24 1 
27 27 26 1 
28 28 26 1 
29 29 26 1 
30 31 30 1 
31 32 30 1 
32 32 31 1 
33 34 33 1 
34 35 33 1 
35 35 34 1 
36 37 36 1 
37 38 36 1 
38 38 37 1 
39 40 39 1 
40 41 39 1 
41 41 40 1 
42 43 42 1 
43 44 42 1 
44 44 43 1 
45 46 45 1 
46 47 45 1 
47 47 46 1 
48 49 48 1 
49 50 48 1 
50 50 49 1 
51 52 51 1 
52 53 51 1 
53 53 52 1 
54 55 54 1 
55 56 54 1 
56 56 55 1 
57 58 57 1 
58 59 57 1 
59 59 58 1 
60 61 60 1 
61 62 60 1 
62 62 61 1 
63 64 63 1 
64 65 63 1 
65 65 64 1 
66 67 66 1 
67 68 66 1 
68 68 67 1 
69 69 70 1 
70 69 71 1 
71 71 70 1 
72 73 72 1 
73 74 72 1 
74 74 73 1 
75 76 75 1 
76 77 75 1 
77 77 76 1 
78 79 78 1 
79 80 78 1 
80 80 79 1 
81 82 81 1 
82 83 81 1 
83 83 82 1 
84 85 84 1 
85 86 84 1 
86 86 85 1 
87 88 87 1 
88 89 87 1 
89 89 88 1 
90 91 90 1 
91 92 90 1 
92 92 91 1 
93 94 93 1 
94 95 93 1 
95 95 94 1 
96 97 96 1 
97 98 96 1 
98 98 97 1 
99 100 99 1 
100 101 99 1 
101 101 100 1 
102 103 102 1 
103 104 102 1 
104 104 103 1 
105 105 106 1 
106 105 107 1 
107 107 106 1 
108 109 108 1 
109 110 108 1 
110 110 109 1 
111 112 111 1 
112 113 111 1 
113 113 112 1 
114 115 114 1 
115 116 114 1 
116 116 115 1 
117 118 117 1 
118 119 117 1 
119 119 118 1 
120 121 120 1 
121 122 120 1 
122 122 121 1 
123 124 123 1 
124 125 123 1 
125 125 124 1 
126 127 126 1 
127 128 126 1 
128 128 127 1 
129 130 129 1 
130 131 129 1 
131 131 130 1 
132 133 132 1 
133 134 132 1 
134 134 133 1 
135 136 135 1 
136 137 135 1 
137 137 136 1 
138 139 138 1 
139 140 138 1 
140 140 139 1 
141 142 141 1 
142 143 141 1 
143 143 142 1 
144 145 144 1 
145 146 144 1 
146 146 145 1 
147 148 147 1 
148 149 147 1 
149 149 148 1 
150 151 150 1 
151 152 150 1 
152 152 151 1 
153 154 153 1 
154 155 153 1 
155 155 154 1 
156 157 156 1 
157 158 156 1 
158 158 157 1 
159 160 159 1 
160 161 159 1 
161 161 160 1 
162 163 162 1 
163 164 162 1 
164 164 163 1 
165 166 165 1 
166 167 165 1 
167 167 166 1 
168 169 168 1 
169 170 168 1 
170 170 169 1 
171 172 171 1 
172 173 171 1 
173 173 172 1 
174 175 174 1 
175 176 174 1 
176 176 175 1 
177 177 179 1 
178 178 177 1 
179 178 179 1 
180 181 180 1 
181 182 180 1 
182 182 181 1 
183 184 183 1 
184 185 183 1 
185 185 184 1 
186 187 186 1 
187 188 186 1 
188 188 187 1 
189 190 189 1 
190 191 189 1 
191 191 190 1 
192 193 192 1 
193 194 192 1 
194 194 193 1 
195 196 195 1 
196 197 195 1 
197 197 196 1 
198 199 198 1 
199 200 198 1 
200 200 199 1 
201 202 201 1 
202 203 201 1 
203 203 202 1 
204 205 204 1 
205 206 204 1 
206 206 205 1 
207 208 207 1 
208 209 207 1 
209 209 208 1 
210 211 210 1 
211 212 210 1 
212 212 211 1 
213 214 213 1 
214 215 213 1 
215 215 214 1 
216 217 216 1 
217 218 216 1 
218 218 217 1 
219 220 219 1 
220 221 219 1 
221 221 220 1 
222 223 222 1 
223 224 222 1 
224 224 223 1 
225 225 227 1 
226 226 225 1 
227 226 227 1 
228 229 228 1 
229 230 228 1 
230 230 229 1 
231 232 231 1 
232 233 231 1 
233 233 232 1 
234 235 234 1 
235 236 234 1 
236 236 235 1 
237 238 237 1 
238 239 237 1 
239 239 238 1 
240 241 240 1 
241 242 240 1 
242 242 241 1 
243 244 243 1 
244 245 243 1 
245 245 244 1 
246 247 246 1 
247 248 246 1 
248 248 247 1 
249 250 249 1 
250 251 249 1 
251 251 250 1 
252 253 252 1 
253 254 252 1 
254 254 253 1 
255 256 255 1 
256 257 255 1 
257 257 256 1 
258 259 258 1 
259 260 258 1 
260 260 259 1 
261 262 261 1 
262 263 261 1 
263 263 262 1 
264 264 265 1 
265 264 266 1 
266 266 265 1 
267 268 267 1 
268 269 267 1 
269 269 268 1 
270 271 270 1 
271 272 270 1 
272 272 271 1 
273 274 273 1 
274 275 273 1 
275 275 274 1 
276 277 276 1 
277 278 276 1 
278 278 277 1 
279 280 279 1 
280 281 279 1 
281 281 280 1 
282 283 282 1 
283 284 282 1 
284 284 283 1 
285 286 285 1 
286 287 285 1 
287 287 286 1 
288 289 288 1 
289 290 288 1 
290 290 289 1 
291 292 291 1 
292 293 291 1 
293 293 292 1 
294 295 294 1 
295 296 294 1 
296 296 295 1 
297 298 297 1 
298 299 297 1 
299 299 298 1 
300 301 300 1 
301 302 300 1 
302 302 301 1 
303 304 303 1 
304 305 303 1 
305 305 304 1 
306 307 306 1 
307 308 306 1 
308 308 307 1 
309 310 309 1 
310 311 309 1 
311 311 310 1 
312 313 312 1 
313 314 312 1 
314 314 313 1 
315 316 315 1 
316 317 315 1 
317 317 316 1 
318 319 318 1 
319 320 318 1 
320 320 319 1 
321 321 323 1 
322 322 321 1 
323 322 323 1 
324 325 324 1 
325 326 324 1 
326 326 325 1 
327 328 327 1 
328 329 327 1 
329 329 328 1 
330 331 330 1 
331 332 330 1 
332 332 331 1 
333 334 333 1 
334 335 333 1 
335 335 334 1 
336 337 336 1 
337 338 336 1 
338 338 337 1 
339 340 339 1 
340 341 339 1 
341 341 340 1 
342 343 342 1 
343 344 342 1 
344 344 343 1 
345 346 345 1 
346 347 345 1 
347 347 346 1 
348 349 348 1 
349 350 348 1 
350 350 349 1 
351 352 351 1 
352 353 351 1 
353 353 352 1 
354 355 354 1 
355 356 354 1 
356 356 355 1 
357 358 357 1 
358 359 357 1 
359 359 358 1 
360 360 361 1 
361 360 362 1 
362 362 361 1 
363 364 363 1 
364 365 363 1 
365 365 364 1 
366 367 366 1 
367 368 366 1 
368 368 367 1 
369 370 369 1 
370 371 369 1 
371 371 370 1 
372 373 372 1 
373 374 372 1 
374 374 373 1 
375 375 377 1 
376 376 375 1 
377 376 377 1 
378 379 378 1 
379 380 378 1 
380 380 379 1 
381 382 381 1 
382 383 381 1 
383 383 382 1 
384 385 384 1 
385 386 384 1 
386 386 385 1 
387 387 389 1 
388 388 387 1 
389 388 389 1 
390 391 390 1 
391 392 390 1 
392 392 391 1 
393 394 393 1 
394 395 393 1 
395 395 394 1 
396 397 396 1 
397 398 396 1 
398 398 397 1 
399 400 399 1 
400 401 399 1 
401 401 400 1 
402 403 402 1 
403 404 402 1 
404 404 403 1 
405 406 405 1 
406 407 405 1 
407 407 406 1 
408 409 408 1 
409 410 408 1 
410 410 409 1 
411 412 411 1 
412 413 411 1 
413 413 412 1 
414 415 414 1 
415 416 414 1 
416 416 415 1 
417 418 417 1 
418 419 417 1 
419 419 418 1 
420 421 420 1 
421 422 420 1 
422 422 421 1 
423 424 423 1 
424 425 423 1 
425 425 424 1 
426 426 428 1 
427 427 426 1 
428 427 428 1 
429 430 429 1 
430 431 429 1 
431 431 430 1 
432 433 432 1 
433 434 432 1 
434 434 433 1 
435 436 435 1 
436 437 435 1 
437 437 436 1 
438 439 438 1 
439 440 438 1 
440 440 439 1 
441 442 441 1 
442 443 441 1 
443 443 442 1 
444 445 444 1 
445 446 444 1 
446 446 445 1 
447 448 447 1 
448 449 447 1 
449 449 448 1 
450 451 450 1 
451 452 450 1 
452 452 451 1 
453 454 453 1 
454 455 453 1 
455 455 454 1 
456 457 456 1 
457 458 456 1 
458 458 457 1 
459 460 459 1 
460 461 459 1 
461 461 460 1 
462 463 462 1 
463 464 462 1 
464 464 463 1 
465 466 465 1 
466 467 465 1 
467 467 466 1 
468 469 468 1 
469 470 468 1 
470 470 469 1 
471 472 471 1 
472 473 471 1 
473 473 472 1 
474 475 474 1 
475 476 474 1 
476 476 475 1 
477 477 478 1 
478 477 479 1 
479 479 478 1 
480 481 480 1 
481 482 480 1 
482 482 481 1 
483 484 483 1 
484 485 483 1 
485 485 484 1 
486 487 486 1 
487 488 486 1 
488 488 487 1 
489 490 489 1 
490 491 489 1 
491 491 490 1 
492 493 492 1 
493 494 492 1 
494 494 493 1 
495 496 495 1 
496 497 495 1 
497 497 496 1 
498 499 498 1 
499 500 498 1 
500 500 499 1 
501 502 501 1 
502 503 501 1 
503 503 502 1 
504 505 504 1 
505 506 504 1 
506 506 505 1 
507 508 507 1 
508 509 507 1 
509 509 508 1 
510 511 510 1 
511 512 510 1 
512 512 511 1 
513 514 513 1 
514 515 513 1 
515 515 514 1 
516 517 516 1 
517 518 516 1 
518 518 517 1 
519 520 519 1 
520 521 519 1 
521 521 520 1 
522 523 522 1 
523 524 522 1 
524 524 523 1 
525 526 525 1 
526 527 525 1 
527 527 526 1 
528 529 528 1 
529 530 528 1 
530 530 529 1 
531 532 531 1 
532 533 531 1 
533 533 532 1 
534 534 536 1 
535 535 534 1 
536 535 536 1 
537 538 537 1 
538 539 537 1 
539 539 538 1 
540 541 540 1 
541 542 540 1 
542 542 541 1 
543 544 543 1 
544 545 543 1 
545 545 544 1 
546 547 546 1 
547 548 546 1 
548 548 547 1 
549 550 549 1 
550 551 549 1 
551 551 550 1 
552 553 552 1 
553 554 552 1 
554 554 553 1 
555 556 555 1 
556 557 555 1 
557 557 556 1 
558 559 558 1 
559 560 558 1 
560 560 559 1 
561 562 561 1 
562 563 561 1 
563 563 562 1 
564 565 564 1 
565 566 564 1 
566 566 565 1 
567 568 567 1 
568 569 567 1 
569 569 568 1 
570 571 570 1 
571 572 570 1 
572 572 571 1 
573 574 573 1 
574 575 573 1 
575 575 574 1 
576 577 576 1 
577 578 576 1 
578 578 577 1 
579 579 581 1 
580 580 579 1 
581 580 581 1 
582 583 582 1 
583 584 582 1 
584 584 583 1 
585 586 585 1 
586 587 585 1 
587 587 586 1 
588 589 588 1 
589 590 588 1 
590 590 589 1 
591 592 591 1 
592 593 591 1 
593 593 592 1 
594 594 596 1 
595 595 594 1 
596 595 596 1 
597 598 597 1 
598 599 597 1 
599 599 598 1 
600 601 600 1 
601 602 600 1 
602 602 601 1 
603 603 605 1 
604 604 603 1 
605 604 605 1 
606 607 606 1 
607 608 606 1 
608 608 607 1 
609 610 609 1 
610 611 609 1 
611 611 610 1 
612 613 612 1 
613 614 612 1 
614 614 613 1 
615 615 616 1 
616 615 617 1 
617 617 616 1 
618 619 618 1 
619 620 618 1 
620 620 619 1 
621 622 621 1 
622 623 621 1 
623 623 622 1 
624 625 624 1 
625 626 624 1 
626 626 625 1 
627 628 627 1 
628 629 627 1 
629 629 628 1 
630 631 630 1 
631 632 630 1 
632 632 631 1 
633 634 633 1 
634 635 633 1 
635 635 634 1 
636 637 636 1 
637 638 636 1 
638 638 637 1 
639 640 639 1 
640 641 639 1 
641 641 640 1 
642 643 642 1 
643 644 642 1 
644 644 643 1 
645 645 647 1 
646 646 645 1 
647 646 647 1 
648 649 648 1 
649 650 648 1 
650 650 649 1 
651 652 651 1 
652 653 651 1 
653 653 652 1 
654 655 654 1 
655 656 654 1 
656 656 655 1 
657 658 657 1 
658 659 657 1 
659 659 658 1 
660 661 660 1 
661 662 660 1 
662 662 661 1 
663 663 664 1 
664 663 665 1 
665 665 664 1 
666 667 666 1 
667 668 666 1 
668 668 667 1 
669 670 669 1 
670 671 669 1 
671 671 670 1 
672 673 672 1 
673 674 672 1 
674 674 673 1 
675 676 675 1 
676 677 675 1 
677 677 676 1 
678 679 678 1 
679 680 678 1 
680 680 679 1 
681 682 681 1 
682 683 681 1 
683 683 682 1 
684 685 684 1 
685 686 684 1 
686 686 685 1 
687 688 687 1 
688 689 687 1 
689 689 688 1 
690 691 690 1 
691 692 690 1 
692 692 691 1 
693 694 693 1 
694 695 693 1 
695 695 694 1 
696 697 696 1 
697 698 696 1 
698 698 697 1 
699 700 699 1 
700 701 699 1 
701 701 700 1 
702 703 702 1 
703 704 702 1 
704 704 703 1 
705 706 705 1 
706 707 705 1 
707 707 706 1 
708 709 708 1 
709 710 708 1 
710 710 709 1 
711 712 711 1 
712 713 711 1 
713 713 712 1 
714 715 714 1 
715 716 714 1 
716 716 715 1 
717 718 717 1 
718 719 717 1 
719 719 718 1 
720 721 720 1 
721 722 720 1 
722 722 721 1 
723 724 723 1 
724 725 723 1 
725 725 724 1 
726 727 726 1 
727 728 726 1 
728 728 727 1 
729 730 729 1 
730 731 729 1 
731 731 730 1 
732 732 734 1 
733 733 732 1 
734 733 734 1 
735 736 735 1 
736 737 735 1 
737 737 736 1 
738 739 738 1 
739 740 738 1 
740 740 739 1 
741 742 741 1 
742 743 741 1 
743 743 742 1 
744 745 744 1 
745 746 744 1 
746 746 745 1 
747 748 747 1 
748 749 747 1 
749 749 748 1 
750 751 750 1 
751 752 750 1 
752 752 751 1 
753 754 753 1 
754 755 753 1 
755 755 754 1 
756 757 756 1 
757 758 756 1 
758 758 757 1 
759 760 759 1 
760 761 759 1 
761 761 760 1 
762 763 762 1 
763 764 762 1 
764 764 763 1 
765 766 765 1 
766 767 765 1 
767 767 766 1 
768 769 768 1 
769 770 768 1 
770 770 769 1 
771 772 771 1 
772 773 771 1 
773 773 772 1 
774 775 774 1 
775 776 774 1 
776 776 775 1 
777 778 777 1 
778 779 777 1 
779 779 778 1 
780 781 780 1 
781 782 780 1 
782 782 781 1 
783 784 783 1 
784 785 783 1 
785 785 784 1 
786 786 788 1 
787 787 786 1 
788 787 788 1 
789 790 789 1 
790 791 789 1 
791 791 790 1 
792 793 792 1 
793 794 792 1 
794 794 793 1 
795 796 795 1 
796 797 795 1 
797 797 796 1 
798 799 798 1 
799 800 798 1 
800 800 799 1 
801 802 801 1 
802 803 801 1 
803 803 802 1 
804 805 804 1 
805 806 804 1 
806 806 805 1 
807 808 807 1 
808 809 807 1 
809 809 808 1 
810 811 810 1 
811 812 810 1 
812 812 811 1 
813 814 813 1 
814 815 813 1 
815 815 814 1 
816 817 816 1 
817 818 816 1 
818 818 817 1 
819 820 819 1 
820 821 819 1 
821 821 820 1 
822 823 822 1 
823 824 822 1 
824 824 823 1 
825 826 825 1 
826 827 825 1 
827 827 826 1 
828 829 828 1 
829 830 828 1 
830 830 829 1 
831 832 831 1 
832 833 831 1 
833 833 832 1 
834 835 834 1 
835 836 834 1 
836 836 835 1 
837 838 837 1 
838 839 837 1 
839 839 838 1 
840 841 840 1 
841 842 840 1 
842 842 841 1 
843 844 843 1 
844 845 843 1 
845 845 844 1 
846 847 846 1 
847 848 846 1 
848 848 847 1 
849 850 849 1 
850 851 849 1 
851 851 850 1 
852 853 852 1 
853 854 852 1 
854 854 853 1 
855 856 855 1 
856 857 855 1 
857 857 856 1 
858 859 858 1 
859 860 858 1 
860 860 859 1 
861 862 861 1 
862 863 861 1 
863 863 862 1 
864 865 864 1 
865 866 864 1 
866 866 865 1 
867 868 867 1 
868 869 867 1 
869 869 868 1 
870 871 870 1 
871 872 870 1 
872 872 871 1 
873 874 873 1 
874 875 873 1 
875 875 874 1 
876 877 876 1 
877 878 876 1 
878 878 877 1 
879 880 879 1 
880 881 879 1 
881 881 880 1 
882 883 882 1 
883 884 882 1 
884 884 883 1 
885 886 885 1 
886 887 885 1 
887 887 886 1 
888 889 888 1 
889 890 888 1 
890 890 889 1 
891 892 891 1 
892 893 891 1 
893 893 892 1 
894 895 894 1 
895 896 894 1 
896 896 895 1 
897 898 897 1 
898 899 897 1 
899 899 898 1 
900 901 900 1 
901 902 900 1 
902 902 901 1 
903 904 903 1 
904 905 903 1 
905 905 904 1 
906 907 906 1 
907 908 906 1 
908 908 907 1 
909 910 909 1 
910 911 909 1 
911 911 910 1 
912 913 912 1 
913 914 912 1 
914 914 913 1 
915 915 916 1 
916 915 917 1 
917 917 916 1 
918 919 918 1 
919 920 918 1 
920 920 919 1 
921 922 921 1 
922 923 921 1 
923 923 922 1 
924 925 924 1 
925 926 924 1 
926 926 925 1 
927 928 927 1 
928 929 927 1 
929 929 928 1 
930 931 930 1 
931 932 930 1 
932 932 931 1 
933 934 933 1 
934 935 933 1 
935 935 934 1 
936 936 938 1 
937 937 936 1 
938 937 938 1 
939 940 939 1 
940 941 939 1 
941 941 940 1 
942 942 944 1 
943 943 942 1 
944 943 944 1 
945 946 945 1 
946 947 945 1 
947 947 946 1 
948 949 948 1 
949 950 948 1 
950 950 949 1 
951 951 953 1 
952 952 951 1 
953 952 953 1 
954 955 954 1 
955 956 954 1 
956 956 955 1 
957 958 957 1 
958 959 957 1 
959 959 958 1 
960 961 960 1 
961 962 960 1 
962 962 961 1 
963 964 963 1 
964 965 963 1 
965 965 964 1 
966 967 966 1 
967 968 966 1 
968 968 967 1 
969 970 969 1 
970 971 969 1 
971 971 970 1 
972 973 972 1 
973 974 972 1 
974 974 973 1 
975 976 975 1 
976 977 975 1 
977 977 976 1 
978 978 979 1 
979 978 980 1 
980 980 979 1 
981 982 981 1 
982 983 981 1 
983 983 982 1 
984 985 984 1 
985 986 984 1 
986 986 985 1 
987 988 987 1 
988 989 987 1 
989 989 988 1 
990 991 990 1 
991 992 990 1 
992 992 991 1 
993 993 995 1 
994 994 993 1 
995 994 995 1 
996 997 996 1 
997 998 996 1 
998 998 997 1 
999 1000 999 1 
1000 1001 999 1 
1001 1001 1000 1 
1002 1003 1002 1 
1003 1004 1002 1 
1004 1004 1003 1 
1005 1006 1005 1 
1006 1007 1005 1 
1007 1007 1006 1 
1008 1009 1008 1 
1009 1010 1008 1 
1010 1010 1009 1 
1011 1012 1011 1 
1012 1013 1011 1 
1013 1013 1012 1 
1014 1015 1014 1 
1015 1016 1014 1 
1016 1016 1015 1 
1017 1018 1017 1 
1018 1019 1017 1 
1019 1019 1018 1 
1020 1021 1020 1 
1021 1022 1020 1 
1022 1022 1021 1 
1023 1024 1023 1 
1024 1025 1023 1 
1025 1025 1024 1 
1026 1027 1026 1 
1027 1028 1026 1 
1028 1028 1027 1 
1029 1029 1031 1 
1030 1030 1029 1 
1031 1030 1031 1 
1032 1033 1032 1 
1033 1034 1032 1 
1034 1034 1033 1 
1035 1035 1037 1 
1036 1036 1035 1 
1037 1036 1037 1 
1038 1039 1038 1 
1039 1040 1038 1 
1040 1040 1039 1 
1041 1042 1041 1 
1042 1043 1041 1 
1043 1043 1042 1 
1044 1045 1044 1 
1045 1046 1044 1 
1046 1046 1045 1 
1047 1048 1047 1 
1048 1049 1047 1 
1049 1049 1048 1 
1050 1051 1050 1 
1051 1052 1050 1 
1052 1052 1051 1 
1053 1054 1053 1 
1054 1055 1053 1 
1055 1055 1054 1 
1056 1057 1056 1 
1057 1058 1056 1 
1058 1058 1057 1 
1059 1060 1059 1 
1060 1061 1059 1 
1061 1061 1060 1 
1062 1063 1062 1 
1063 1064 1062 1 
1064 1064 1063 1 
1065 1066 1065 1 
1066 1067 1065 1 
1067 1067 1066 1 
1068 1069 1068 1 
1069 1070 1068 1 
1070 1070 1069 1 
1071 1072 1071 1 
1072 1073 1071 1 
1073 1073 1072 1 
1074 1075 1074 1 
1075 1076 1074 1 
1076 1076 1075 1 
1077 1078 1077 1 
1078 1079 1077 1 
1079 1079 1078 1 
1080 1080 1082 1 
1081 1081 1080 1 
1082 1081 1082 1 
1083 1084 1083 1 
1084 1085 1083 1 
1085 1085 1084 1 
1086 1087 1086 1 
1087 1088 1086 1 
1088 1088 1087 1 
1089 1090 1089 1 
1090 1091 1089 1 
1091 1091 1090 1 
1092 1093 1092 1 
1093 1094 1092 1 
1094 1094 1093 1 
1095 1096 1095 1 
1096 1097 1095 1 
1097 1097 1096 1 
1098 1099 1098 1 
1099 1100 1098 1 
1100 1100 1099 1 
1101 1102 1101 1 
1102 1103 1101 1 
1103 1103 1102 1 
1104 1105 1104 1 
1105 1106 1104 1 
1106 1106 1105 1 
1107 1107 1109 1 
1108 1108 1107 1 
1109 1108 1109 1 
1110 1111 1110 1 
1111 1112 1110 1 
1112 1112 1111 1 
1113 1114 1113 1 
1114 1115 1113 1 
1115 1115 1114 1 
1116 1117 1116 1 
1117 1118 1116 1 
1118 1118 1117 1 
1119 1120 1119 1 
1120 1121 1119 1 
1121 1121 1120 1 
1122 1123 1122 1 
1123 1124 1122 1 
1124 1124 1123 1 
1125 1126 1125 1 
1126 1127 1125 1 
1127 1127 1126 1 
1128 1129 1128 1 
1129 1130 1128 1 
1130 1130 1129 1 
1131 1132 1131 1 
1132 1133 1131 1 
1133 1133 1132 1 
1134 1135 1134 1 
1135 1136 1134 1 
1136 1136 1135 1 
1137 1138 1137 1 
1138 1139 1137 1 
1139 1139 1138 1 
1140 1141 1140 1 
1141 1142 1140 1 
1142 1142 1141 1 
1143 1144 1143 1 
1144 1145 1143 1 
1145 1145 1144 1 
1146 1147 1146 1 
1147 1148 1146 1 
1148 1148 1147 1 
1149 1150 1149 1 
1150 1151 1149 1 
1151 1151 1150 1 
1152 1153 1152 1 
1153 1154 1152 1 
1154 1154 1153 1 
1155 1155 1156 1 
1156 1155 1157 1 
1157 1157 1156 1 
1158 1159 1158 1 
1159 1160 1158 1 
1160 1160 1159 1 
1161 1161 1163 1 
1162 1162 1161 1 
1163 1162 1163 1 
1164 1165 1164 1 
1165 1166 1164 1 
1166 1166 1165 1 
1167 1168 1167 1 
1168 1169 1167 1 
1169 1169 1168 1 
1170 1171 1170 1 
1171 1172 1170 1 
1172 1172 1171 1 
1173 1174 1173 1 
1174 1175 1173 1 
1175 1175 1174 1 
1176 1177 1176 1 
1177 1178 1176 1 
1178 1178 1177 1 
1179 1180 1179 1 
1180 1181 1179 1 
1181 1181 1180 1 
1182 1183 1182 1 
1183 1184 1182 1 
1184 1184 1183 1 
1185 1185 1187 1 
1186 1186 1185 1 
1187 1186 1187 1 
1188 1189 1188 1 
1189 1190 1188 1 
1190 1190 1189 1 
1191 1192 1191 1 
1192 1193 1191 1 
1193 1193 1192 1 
1194 1195 1194 1 
1195 1196 1194 1 
1196 1196 1195 1 
1197 1198 1197 1 
1198 1199 1197 1 
1199 1199 1198 1 
1200 1200 1202 1 
1201 1201 1200 1 
1202 1201 1202 1 
1203 1204 1203 1 
1204 1205 1203 1 
1205 1205 1204 1 
1206 1207 1206 1 
1207 1208 1206 1 
1208 1208 1207 1 
1209 1210 1209 1 
1210 1211 1209 1 
1211 1211 1210 1 
1212 1213 1212 1 
1213 1214 1212 1 
1214 1214 1213 1 
1215 1216 1215 1 
1216 1217 1215 1 
1217 1217 1216 1 
1218 1219 1218 1 
1219 1220 1218 1 
1220 1220 1219 1 
1221 1221 1223 1 
1222 1222 1221 1 
1223 1222 1223 1 
1224 1225 1224 1 
1225 1226 1224 1 
1226 1226 1225 1 
1227 1228 1227 1 
1228 1229 1227 1 
1229 1229 1228 1 
1230 1231 1230 1 
1231 1232 1230 1 
1232 1232 1231 1 
1233 1234 1233 1 
1234 1235 1233 1 
1235 1235 1234 1 
1236 1237 1236 1 
1237 1238 1236 1 
1238 1238 1237 1 
1239 1240 1239 1 
1240 1241 1239 1 
1241 1241 1240 1 
1242 1242 1244 1 
1243 1243 1242 1 
1244 1243 1244 1 
1245 1246 1245 1 
1246 1247 1245 1 
1247 1247 1246 1 
1248 1249 1248 1 
1249 1250 1248 1 
1250 1250 1249 1 
1251 1251 1253 1 
1252 1252 1251 1 
1253 1252 1253 1 
1254 1255 1254 1 
1255 1256 1254 1 
1256 1256 1255 1 
1257 1258 1257 1 
1258 1259 1257 1 
1259 1259 1258 1 
1260 1261 1260 1 
1261 1262 1260 1 
1262 1262 1261 1 
1263 1264 1263 1 
1264 1265 1263 1 
1265 1265 1264 1 
1266 1267 1266 1 
1267 1268 1266 1 
1268 1268 1267 1 
1269 1270 1269 1 
1270 1271 1269 1 
1271 1271 1270 1 
1272 1273 1272 1 
1273 1274 1272 1 
1274 1274 1273 1 
1275 1276 1275 1 
1276 1277 1275 1 
1277 1277 1276 1 
1278 1279 1278 1 
1279 1280 1278 1 
1280 1280 1279 1 
1281 1282 1281 1 
1282 1283 1281 1 
1283 1283 1282 1 
1284 1285 1284 1 
1285 1286 1284 1 
1286 1286 1285 1 
1287 1288 1287 1 
1288 1289 1287 1 
1289 1289 1288 1 
1290 1291 1290 1 
1291 1292 1290 1 
1292 1292 1291 1 
1293 1294 1293 1 
1294 1295 1293 1 
1295 1295 1294 1 
1296 1297 1296 1 
1297 1298 1296 1 
1298 1298 1297 1 
1299 1300 1299 1 
1300 1301 1299 1 
1301 1301 1300 1 
1302 1303 1302 1 
1303 1304 1302 1 
1304 1304 1303 1 
1305 1306 1305 1 
1306 1307 1305 1 
1307 1307 1306 1 
1308 1309 1308 1 
1309 1310 1308 1 
1310 1310 1309 1 
1311 1312 1311 1 
1312 1313 1311 1 
1313 1313 1312 1 
1314 1315 1314 1 
1315 1316 1314 1 
1316 1316 1315 1 
1317 1317 1319 1 
1318 1318 1317 1 
1319 1318 1319 1 
1320 1321 1320 1 
1321 1322 1320 1 
1322 1322 1321 1 
1323 1323 1325 1 
1324 1324 1323 1 
1325 1324 1325 1 
1326 1327 1326 1 
1327 1328 1326 1 
1328 1328 1327 1 
1329 1330 1329 1 
1330 1331 1329 1 
1331 1331 1330 1 
1332 1333 1332 1 
1333 1334 1332 1 
1334 1334 1333 1 
1335 1336 1335 1 
1336 1337 1335 1 
1337 1337 1336 1 
1338 1339 1338 1 
1339 1340 1338 1 
1340 1340 1339 1 
1341 1342 1341 1 
1342 1343 1341 1 
1343 1343 1342 1 
1344 1345 1344 1 
1345 1346 1344 1 
1346 1346 1345 1 
1347 1348 1347 1 
1348 1349 1347 1 
1349 1349 1348 1 
1350 1351 1350 1 
1351 1352 1350 1 
1352 1352 1351 1 
1353 1353 1354 1 
1354 1353 1355 1 
1355 1355 1354 1 
1356 1357 1356 1 
1357 1358 1356 1 
1358 1358 1357 1 
1359 1360 1359 1 
1360 1361 1359 1 
1361 1361 1360 1 
1362 1363 1362 1 
1363 1364 1362 1 
1364 1364 1363 1 
1365 1366 1365 1 
1366 1367 1365 1 
1367 1367 1366 1 
1368 1369 1368 1 
1369 1370 1368 1 
1370 1370 1369 1 
1371 1372 1371 1 
1372 1373 1371 1 
1373 1373 1372 1 
1374 1375 1374 1 
1375 1376 1374 1 
1376 1376 1375 1 
1377 1378 1377 1 
1378 1379 1377 1 
1379 1379 1378 1 
1380 1381 1380 1 
1381 1382 1380 1 
1382 1382 1381 1 
1383 1384 1383 1 
1384 1385 1383 1 
1385 1385 1384 1 
1386 1387 1386 1 
1387 1388 1386 1 
1388 1388 1387 1 
1389 1390 1389 1 
1390 1391 1389 1 
1391 1391 1390 1 
1392 1393 1392 1 
1393 1394 1392 1 
1394 1394 1393 1 
1395 1396 1395 1 
1396 1397 1395 1 
1397 1397 1396 1 
1398 1399 1398 1 
1399 1400 1398 1 
1400 1400 1399 1 
1401 1401 1403 1 
1402 1402 1401 1 
1403 1402 1403 1 
1404 1405 1404 1 
1405 1406 1404 1 
1406 1406 1405 1 
1407 1408 1407 1 
1408 1409 1407 1 
1409 1409 1408 1 
1410 1410 1411 1 
1411 1410 1412 1 
1412 1412 1411 1 
1413 1414 1413 1 
1414 1415 1413 1 
1415 1415 1414 1 
1416 1417 1416 1 
1417 1418 1416 1 
1418 1418 1417 1 
1419 1420 1419 1 
1420 1421 1419 1 
1421 1421 1420 1 
1422 1423 1422 1 
1423 1424 1422 1 
1424 1424 1423 1 
1425 1426 1425 1 
1426 1427 1425 1 
1427 1427 1426 1 
1428 1429 1428 1 
1429 1430 1428 1 
1430 1430 1429 1 
1431 1432 1431 1 
1432 1433 1431 1 
1433 1433 1432 1 
1434 1435 1434 1 
1435 1436 1434 1 
1436 1436 1435 1 
1437 1438 1437 1 
1438 1439 1437 1 
1439 1439 1438 1 
1440 1441 1440 1 
1441 1442 1440 1 
1442 1442 1441 1 
1443 1444 1443 1 
1444 1445 1443 1 
1445 1445 1444 1 
1446 1447 1446 1 
1447 1448 1446 1 
1448 1448 1447 1 
1449 1449 1450 1 
1450 1449 1451 1 
1451 1451 1450 1 
1452 1453 1452 1 
1453 1454 1452 1 
1454 1454 1453 1 
1455 1456 1455 1 
1456 1457 1455 1 
1457 1457 1456 1 
1458 1458 1460 1 
1459 1459 1458 1 
1460 1459 1460 1 
1461 1461 1462 1 
1462 1461 1463 1 
1463 1463 1462 1 
1464 1465 1464 1 
1465 1466 1464 1 
1466 1466 1465 1 
1467 1468 1467 1 
1468 1469 1467 1 
1469 1469 1468 1 
1470 1471 1470 1 
1471 1472 1470 1 
1472 1472 1471 1 
1473 1474 1473 1 
1474 1475 1473 1 
1475 1475 1474 1 
@<TRIPOS>SUBSTRUCTURE
1 ACE_1 1 RESIDUE 1 **** ACE 1
2 HIE_2 7 RESIDUE 1 **** HIE 1
3 NME_3 24 RESIDUE 1 **** NME 1
4 WAT_4 30 RESIDUE 1 NIL WAT 1
5 WAT_5 33 RESIDUE 1 NIL WAT 1
6 WAT_6 36 RESIDUE 1 NIL WAT 1
7 WAT_7 39 RESIDUE 1 NIL WAT 1
8 WAT_8 42 RESIDUE 1 NIL WAT 1
9 WAT_9 45 RESIDUE 1 NIL WAT 1
10 WAT_10 48 RESIDUE 1 NIL WAT 1
11 WAT_11 51 RESIDUE 1 NIL WAT 1
12 WAT_12 54 RESIDUE 1 NIL WAT 1
13 WAT_13 57 RESIDUE 1 NIL WAT 1
14 WAT_14 60 RESIDUE 1 NIL WAT 1
15 WAT_15 63 RESIDUE 1 NIL WAT 1
16 WAT_16 66 RESIDUE 1 NIL WAT 1
17 WAT_17 69 RESIDUE 1 NIL WAT 1
18 WAT_18 72 RESIDUE 1 NIL WAT 1
19 WAT_19 75 RESIDUE 1 NIL WAT 1
20 WAT_20 78 RESIDUE 1 NIL WAT 1
21 WAT_21 81 RESIDUE 1 NIL WAT 1
22 WAT_22 84 RESIDUE 1 NIL WAT 1
23 WAT_23 87 RESIDUE 1 NIL WAT 1
24 WAT_24 90 RESIDUE 1 NIL WAT 1
25 WAT_25 93 RESIDUE 1 NIL WAT 1
26 WAT_26 96 RESIDUE 1 NIL WAT 1
27 WAT_27 99 RESIDUE 1 NIL WAT 1
28 WAT_28 102 RESIDUE 1 NIL WAT 1
29 WAT_29 105 RESIDUE 1 NIL WAT 1
30 WAT_30 108 RESIDUE 1 NIL WAT 1
31 WAT_31 111 RESIDUE 1 NIL WAT 1
32 WAT_32 114 RESIDUE 1 NIL WAT 1
33 WAT_33 117 RESIDUE 1 NIL WAT 1
34 WAT_34 120 RESIDUE 1 NIL WAT 1
35 WAT_35 123 RESIDUE 1 NIL WAT 1
36 WAT_36 126 RESIDUE 1 NIL WAT 1
37 WAT_37 129 RESIDUE 1 NIL WAT 1
38 WAT_38 132 RESIDUE 1 NIL WAT 1
39 WAT_39 135 RESIDUE 1 NIL WAT 1
40 WAT_40 138 RESIDUE 1 NIL WAT 1
41 WAT_41 141 RESIDUE 1 NIL WAT 1
42 WAT_42 144 RESIDUE 1 NIL WAT 1
43 WAT_43 147 RESIDUE 1 NIL WAT 1
44 WAT_44 150 RESIDUE 1 NIL WAT 1
45 WAT_45 153 RESIDUE 1 NIL WAT 1
46 WAT_46 156 RESIDUE 1 NIL WAT 1
47 WAT_47 159 RESIDUE 1 NIL WAT 1
48 WAT_48 162 RESIDUE 1 NIL WAT 1
49 WAT_49 165 RESIDUE 1 NIL WAT 1
50 WAT_50 168 RESIDUE 1 NIL WAT 1
51 WAT_51 171 RESIDUE 1 NIL WAT 1
52 WAT_52 174 RESIDUE 1 NIL WAT 1
53 WAT_53 177 RESIDUE 1 NIL WAT 1
54 WAT_54 180 RESIDUE 1 NIL WAT 1
55 WAT_55 183 RESIDUE 1 NIL WAT 1
56 WAT_56 186 RESIDUE 1 NIL WAT 1
57 WAT_57 189 RESIDUE 1 NIL WAT 1
58 WAT_58 192 RESIDUE 1 NIL WAT 1
59 WAT_59 195 RESIDUE 1 NIL WAT 1
60 WAT_60 198 RESIDUE 1 NIL WAT 1
61 WAT_61 201 RESIDUE 1 NIL WAT 1
62 WAT_62 204 RESIDUE 1 NIL WAT 1
63 WAT_63 207 RESIDUE 1 NIL WAT 1
64 WAT_64 210 RESIDUE 1 NIL WAT 1
65 WAT_65 213 RESIDUE 1 NIL WAT 1
66 WAT_66 216 RESIDUE 1 NIL WAT 1
67 WAT_67 219 RESIDUE 1 NIL WAT 1
68 WAT_68 222 RESIDUE 1 NIL WAT 1
69 WAT_69 225 RESIDUE 1 NIL WAT 1
70 WAT_70 228 RESIDUE 1 NIL WAT 1
71 WAT_71 231 RESIDUE 1 NIL WAT 1
72 WAT_72 234 RESIDUE 1 NIL WAT 1
73 WAT_73 237 RESIDUE 1 NIL WAT 1
74 WAT_74 240 RESIDUE 1 NIL WAT 1
75 WAT_75 243 RESIDUE 1 NIL WAT 1
76 WAT_76 246 RESIDUE 1 NIL WAT 1
77 WAT_77 249 RESIDUE 1 NIL WAT 1
78 WAT_78 252 RESIDUE 1 NIL WAT 1
79 WAT_79 255 RESIDUE 1 NIL WAT 1
80 WAT_80 258 RESIDUE 1 NIL WAT 1
81 WAT_81 261 RESIDUE 1 NIL WAT 1
82 WAT_82 264 RESIDUE 1 NIL WAT 1
83 WAT_83 267 RESIDUE 1 NIL WAT 1
84 WAT_84 270 RESIDUE 1 NIL WAT 1
85 WAT_85 273 RESIDUE 1 NIL WAT 1
86 WAT_86 276 RESIDUE 1 NIL WAT 1
87 WAT_87 279 RESIDUE 1 NIL WAT 1
88 WAT_88 282 RESIDUE 1 NIL WAT 1
89 WAT_89 285 RESIDUE 1 NIL WAT 1
90 WAT_90 288 RESIDUE 1 NIL WAT 1
91 WAT_91 291 RESIDUE 1 NIL WAT 1
92 WAT_92 294 RESIDUE 1 NIL WAT 1
93 WAT_93 297 RESIDUE 1 NIL WAT 1
94 WAT_94 300 RESIDUE 1 NIL WAT 1
95 WAT_95 303 RESIDUE 1 NIL WAT 1
96 WAT_96 306 RESIDUE 1 NIL WAT 1
97 WAT_97 309 RESIDUE 1 NIL WAT 1
98 WAT_98 312 RESIDUE 1 NIL WAT 1
99 WAT_99 315 RESIDUE 1 NIL WAT 1
100 WAT_100 318 RESIDUE 1 NIL WAT 1
101 WAT_101 321 RESIDUE 1 NIL WAT 1
102 WAT_102 324 RESIDUE 1 NIL WAT 1
103 WAT_103 327 RESIDUE 1 NIL WAT 1
104 WAT_104 330 RESIDUE 1 NIL WAT 1
105 WAT_105 333 RESIDUE 1 NIL WAT 1
106 WAT_106 336 RESIDUE 1 NIL WAT 1
107 WAT_107 339 RESIDUE 1 NIL WAT 1
108 WAT_108 342 RESIDUE 1 NIL WAT 1
109 WAT_109 345 RESIDUE 1 NIL WAT 1
110 WAT_110 348 RESIDUE 1 NIL WAT 1
111 WAT_111 351 RESIDUE 1 NIL WAT 1
112 WAT_112 354 RESIDUE 1 NIL WAT 1
113 WAT_113 357 RESIDUE 1 NIL WAT 1
114 WAT_114 360 RESIDUE 1 NIL WAT 1
115 WAT_115 363 RESIDUE 1 NIL WAT 1
116 WAT_116 366 RESIDUE 1 NIL WAT 1
117 WAT_117 369 RESIDUE 1 NIL WAT 1
118 WAT_118 372 RESIDUE 1 NIL WAT 1
119 WAT_119 375 RESIDUE 1 NIL WAT 1
120 WAT_120 378 RESIDUE 1 NIL WAT 1
121 WAT_121 381 RESIDUE 1 NIL WAT 1
122 WAT_122 384 RESIDUE 1 NIL WAT 1
123 WAT_123 387 RESIDUE 1 NIL WAT 1
124 WAT_124 390 RESIDUE 1 NIL WAT 1
125 WAT_125 393 RESIDUE 1 NIL WAT 1
126 WAT_126 396 RESIDUE 1 NIL WAT 1
127 WAT_127 399 RESIDUE 1 NIL WAT 1
128 WAT_128 402 RESIDUE 1 NIL WAT 1
129 WAT_129 405 RESIDUE 1 NIL WAT 1
130 WAT_130 408 RESIDUE 1 NIL WAT 1
131 WAT_131 411 RESIDUE 1 NIL WAT 1
132 WAT_132 414 RESIDUE 1 NIL WAT 1
133 WAT_133 417 RESIDUE 1 NIL WAT 1
134 WAT_134 420 RESIDUE 1 NIL WAT 1
135 WAT_135 423 RESIDUE 1 NIL WAT 1
136 WAT_136 426 RESIDUE 1 NIL WAT 1
137 WAT_137 429 RESIDUE 1 NIL WAT 1
138 WAT_138 432 RESIDUE 1 NIL WAT 1
139 WAT_139 435 RESIDUE 1 NIL WAT 1
140 WAT_140 438 RESIDUE 1 NIL WAT 1
141 WAT_141 441 RESIDUE 1 NIL WAT 1
142 WAT_142 444 RESIDUE 1 NIL WAT 1
143 WAT_143 447 RESIDUE 1 NIL WAT 1
144 WAT_144 450 RESIDUE 1 NIL WAT 1
145 WAT_145 453 RESIDUE 1 NIL WAT 1
146 WAT_146 456 RESIDUE 1 NIL WAT 1
147 WAT_147 459 RESIDUE 1 NIL WAT 1
148 WAT_148 462 RESIDUE 1 NIL WAT 1
149 WAT_149 465 RESIDUE 1 NIL WAT 1
150 WAT_150 468 RESIDUE 1 NIL WAT 1
151 WAT_151 471 RESIDUE 1 NIL WAT 1
152 WAT_152 474 RESIDUE 1 NIL WAT 1
153 WAT_153 477 RESIDUE 1 NIL WAT 1
154 WAT_154 480 RESIDUE 1 NIL WAT 1
155 WAT_155 483 RESIDUE 1 NIL WAT 1
156 WAT_156 486 RESIDUE 1 NIL WAT 1
157 WAT_157 489 RESIDUE 1 NIL WAT 1
158 WAT_158 492 RESIDUE 1 NIL WAT 1
159 WAT_159 495 RESIDUE 1 NIL WAT 1
160 WAT_160 498 RESIDUE 1 NIL WAT 1
161 WAT_161 501 RESIDUE 1 NIL WAT 1
162 WAT_162 504 RESIDUE 1 NIL WAT 1
163 WAT_163 507 RESIDUE 1 NIL WAT 1
164 WAT_164 510 RESIDUE 1 NIL WAT 1
165 WAT_165 513 RESIDUE 1 NIL WAT 1
166 WAT_166 516 RESIDUE 1 NIL WAT 1
167 WAT_167 519 RESIDUE 1 NIL WAT 1
168 WAT_168 522 RESIDUE 1 NIL WAT 1
169 WAT_169 525 RESIDUE 1 NIL WAT 1
170 WAT_170 528 RESIDUE 1 NIL WAT 1
171 WAT_171 531 RESIDUE 1 NIL WAT 1
172 WAT_172 534 RESIDUE 1 NIL WAT 1
173 WAT_173 537 RESIDUE 1 NIL WAT 1
174 WAT_174 540 RESIDUE 1 NIL WAT 1
175 WAT_175 543 RESIDUE 1 NIL WAT 1
176 WAT_176 546 RESIDUE 1 NIL WAT 1
177 WAT_177 549 RESIDUE 1 NIL WAT 1
178 WAT_178 552 RESIDUE 1 NIL WAT 1
179 WAT_179 555 RESIDUE 1 NIL WAT 1
180 WAT_180 558 RESIDUE 1 NIL WAT 1
181 WAT_181 561 RESIDUE 1 NIL WAT 1
182 WAT_182 564 RESIDUE 1 NIL WAT 1
183 WAT_183 567 RESIDUE 1 NIL WAT 1
184 WAT_184 570 RESIDUE 1 NIL WAT 1
185 WAT_185 573 RESIDUE 1 NIL WAT 1
186 WAT_186 576 RESIDUE 1 NIL WAT 1
187 WAT_187 579 RESIDUE 1 NIL WAT 1
188 WAT_188 582 RESIDUE 1 NIL WAT 1
189 WAT_189 585 RESIDUE 1 NIL WAT 1
190 WAT_190 588 RESIDUE 1 NIL WAT 1
191 WAT_191 591 RESIDUE 1 NIL WAT 1
192 WAT_192 594 RESIDUE 1 NIL WAT 1
193 WAT_193 597 RESIDUE 1 NIL WAT 1
194 WAT_194 600 RESIDUE 1 NIL WAT 1
195 WAT_195 603 RESIDUE 1 NIL WAT 1
196 WAT_196 606 RESIDUE 1 NIL WAT 1
197 WAT_197 609 RESIDUE 1 NIL WAT 1
198 WAT_198 612 RESIDUE 1 NIL WAT 1
199 WAT_199 615 RESIDUE 1 NIL WAT 1
200 WAT_200 618 RESIDUE 1 NIL WAT 1
201 WAT_201 621 RESIDUE 1 NIL WAT 1
202 WAT_202 624 RESIDUE 1 NIL WAT 1
203 WAT_203 627 RESIDUE 1 NIL WAT 1
204 WAT_204 630 RESIDUE 1 NIL WAT 1
205 WAT_205 633 RESIDUE 1 NIL WAT 1
206 WAT_206 636 RESIDUE 1 NIL WAT 1
207 WAT_207 639 RESIDUE 1 NIL WAT 1
208 WAT_208 642 RESIDUE 1 NIL WAT 1
209 WAT_209 645 RESIDUE 1 NIL WAT 1
210 WAT_210 648 RESIDUE 1 NIL WAT 1
211 WAT_211 651 RESIDUE 1 NIL WAT 1
212 WAT_212 654 RESIDUE 1 NIL WAT 1
213 WAT_213 657 RESIDUE 1 NIL WAT 1
214 WAT_214 660 RESIDUE 1 NIL WAT 1
215 WAT_215 663 RESIDUE 1 NIL WAT 1
216 WAT_216 666 RESIDUE 1 NIL WAT 1
217 WAT_217 669 RESIDUE 1 NIL WAT 1
218 WAT_218 672 RESIDUE 1 NIL WAT 1
219 WAT_219 675 RESIDUE 1 NIL WAT 1
220 WAT_220 678 RESIDUE 1 NIL WAT 1
221 WAT_221 681 RESIDUE 1 NIL WAT 1
222 WAT_222 684 RESIDUE 1 NIL WAT 1
223 WAT_223 687 RESIDUE 1 NIL WAT 1
224 WAT_224 690 RESIDUE 1 NIL WAT 1
225 WAT_225 693 RESIDUE 1 NIL WAT 1
226 WAT_226 696 RESIDUE 1 NIL WAT 1
227 WAT_227 699 RESIDUE 1 NIL WAT 1
228 WAT_228 702 RESIDUE 1 NIL WAT 1
229 WAT_229 705 RESIDUE 1 NIL WAT 1
230 WAT_230 708 RESIDUE 1 NIL WAT 1
231 WAT_231 711 RESIDUE 1 NIL WAT 1
232 WAT_232 714 RESIDUE 1 NIL WAT 1
233 WAT_233 717 RESIDUE 1 NIL WAT 1
234 WAT_234 720 RESIDUE 1 NIL WAT 1
235 WAT_235 723 RESIDUE 1 NIL WAT 1
236 WAT_236 726 RESIDUE 1 NIL WAT 1
237 WAT_237 729 RESIDUE 1 NIL WAT 1
238 WAT_238 732 RESIDUE 1 NIL WAT 1
239 WAT_239 735 RESIDUE 1 NIL WAT 1
240 WAT_240 738 RESIDUE 1 NIL WAT 1
241 WAT_241 741 RESIDUE 1 NIL WAT 1
242 WAT_242 744 RESIDUE 1 NIL WAT 1
243 WAT_243 747 RESIDUE 1 NIL WAT 1
244 WAT_244 750 RESIDUE 1 NIL WAT 1
245 WAT_245 753 RESIDUE 1 NIL WAT 1
246 WAT_246 756 RESIDUE 1 NIL WAT 1
247 WAT_247 759 RESIDUE 1 NIL WAT 1
248 WAT_248 762 RESIDUE 1 NIL WAT 1
249 WAT_249 765 RESIDUE 1 NIL WAT 1
250 WAT_250 768 RESIDUE 1 NIL WAT 1
251 WAT_251 771 RESIDUE 1 NIL WAT 1
252 WAT_252 774 RESIDUE 1 NIL WAT 1
253 WAT_253 777 RESIDUE 1 NIL WAT 1
254 WAT_254 780 RESIDUE 1 NIL WAT 1
255 WAT_255 783 RESIDUE 1 NIL WAT 1
256 WAT_256 786 RESIDUE 1 NIL WAT 1
257 WAT_257 789 RESIDUE 1 NIL WAT 1
258 WAT_258 792 RESIDUE 1 NIL WAT 1
259 WAT_259 795 RESIDUE 1 NIL WAT 1
260 WAT_260 798 RESIDUE 1 NIL WAT 1
261 WAT_261 801 RESIDUE 1 NIL WAT 1
262 WAT_262 804 RESIDUE 1 NIL WAT 1
263 WAT_263 807 RESIDUE 1 NIL WAT 1
264 WAT_264 810 RESIDUE 1 NIL WAT 1
265 WAT_265 813 RESIDUE 1 NIL WAT 1
266 WAT_266 816 RESIDUE 1 NIL WAT 1
267 WAT_267 819 RESIDUE 1 NIL WAT 1
268 WAT_268 822 RESIDUE 1 NIL WAT 1
269 WAT_269 825 RESIDUE 1 NIL WAT 1
270 WAT_270 828 RESIDUE 1 NIL WAT 1
271 WAT_271 831 RESIDUE 1 NIL WAT 1
272 WAT_272 834 RESIDUE 1 NIL WAT 1
273 WAT_273 837 RESIDUE 1 NIL WAT 1
274 WAT_274 840 RESIDUE 1 NIL WAT 1
275 WAT_275 843 RESIDUE 1 NIL WAT 1
276 WAT_276 846 RESIDUE 1 NIL WAT 1
277 WAT_277 849 RESIDUE 1 NIL WAT 1
278 WAT_278 852 RESIDUE 1 NIL WAT 1
279 WAT_279 855 RESIDUE 1 NIL WAT 1
280 WAT_280 858 RESIDUE 1 NIL WAT 1
281 WAT_281 861 RESIDUE 1 NIL WAT 1
282 WAT_282 864 RESIDUE 1 NIL WAT 1
283 WAT_283 867 RESIDUE 1 NIL WAT 1
284 WAT_284 870 RESIDUE 1 NIL WAT 1
285 WAT_285 873 RESIDUE 1 NIL WAT 1
286 WAT_286 876 RESIDUE 1 NIL WAT 1
287 WAT_287 879 RESIDUE 1 NIL WAT 1
288 WAT_288 882 RESIDUE 1 NIL WAT 1
289 WAT_289 885 RESIDUE 1 NIL WAT 1
290 WAT_290 888 RESIDUE 1 NIL WAT 1
291 WAT_291 891 RESIDUE 1 NIL WAT 1
292 WAT_292 894 RESIDUE 1 NIL WAT 1
293 WAT_293 897 RESIDUE 1 NIL WAT 1
294 WAT_294 900 RESIDUE 1 NIL WAT 1
295 WAT_295 903 RESIDUE 1 NIL WAT 1
296 WAT_296 906 RESIDUE 1 NIL WAT 1
297 WAT_297 909 RESIDUE 1 NIL WAT 1
298 WAT_298 912 RESIDUE 1 NIL WAT 1
299 WAT_299 915 RESIDUE 1 NIL WAT 1
300 WAT_300 918 RESIDUE 1 NIL WAT 1
301 WAT_301 921 RESIDUE 1 NIL WAT 1
302 WAT_302 924 RESIDUE 1 NIL WAT 1
303 WAT_303 927 RESIDUE 1 NIL WAT 1
304 WAT_304 930 RESIDUE 1 NIL WAT 1
305 WAT_305 933 RESIDUE 1 NIL WAT 1
306 WAT_306 936 RESIDUE 1 NIL WAT 1
307 WAT_307 939 RESIDUE 1 NIL WAT 1
308 WAT_308 942 RESIDUE 1 NIL WAT 1
309 WAT_309 945 RESIDUE 1 NIL WAT 1
310 WAT_310 948 RESIDUE 1 NIL WAT 1
311 WAT_311 951 RESIDUE 1 NIL WAT 1
312 WAT_312 954 RESIDUE 1 NIL WAT 1
313 WAT_313 957 RESIDUE 1 NIL WAT 1
314 WAT_314 960 RESIDUE 1 NIL WAT 1
315 WAT_315 963 RESIDUE 1 NIL WAT 1
316 WAT_316 966 RESIDUE 1 NIL WAT 1
317 WAT_317 969 RESIDUE 1 NIL WAT 1
318 WAT_318 972 RESIDUE 1 NIL WAT 1
319 WAT_319 975 RESIDUE 1 NIL WAT 1
320 WAT_320 978 RESIDUE 1 NIL WAT 1
321 WAT_321 981 RESIDUE 1 NIL WAT 1
322 WAT_322 984 RESIDUE 1 NIL WAT 1
323 WAT_323 987 RESIDUE 1 NIL WAT 1
324 WAT_324 990 RESIDUE 1 NIL WAT 1
325 WAT_325 993 RESIDUE 1 NIL WAT 1
326 WAT_326 996 RESIDUE 1 NIL WAT 1
327 WAT_327 999 RESIDUE 1 NIL WAT 1
328 WAT_328 1002 RESIDUE 1 NIL WAT 1
329 WAT_329 1005 RESIDUE 1 NIL WAT 1
330 WAT_330 1008 RESIDUE 1 NIL WAT 1
331 WAT_331 1011 RESIDUE 1 NIL WAT 1
332 WAT_332 1014 RESIDUE 1 NIL WAT 1
333 WAT_333 1017 RESIDUE 1 NIL WAT 1
334 WAT_334 1020 RESIDUE 1 NIL WAT 1
335 WAT_335 1023 RESIDUE 1 NIL WAT 1
336 WAT_336 1026 RESIDUE 1 NIL WAT 1
337 WAT_337 1029 RESIDUE 1 NIL WAT 1
338 WAT_338 1032 RESIDUE 1 NIL WAT 1
339 WAT_339 1035 RESIDUE 1 NIL WAT 1
340 WAT_340 1038 RESIDUE 1 NIL WAT 1
341 WAT_341 1041 RESIDUE 1 NIL WAT 1
342 WAT_342 1044 RESIDUE 1 NIL WAT 1
343 WAT_343 1047 RESIDUE 1 NIL WAT 1
344 WAT_344 1050 RESIDUE 1 NIL WAT 1
345 WAT_345 1053 RESIDUE 1 NIL WAT 1
346 WAT_346 1056 RESIDUE 1 NIL WAT 1
347 WAT_347 1059 RESIDUE 1 NIL WAT 1
348 WAT_348 1062 RESIDUE 1 NIL WAT 1
349 WAT_349 1065 RESIDUE 1 NIL WAT 1
350 WAT_350 1068 RESIDUE 1 NIL WAT 1
351 WAT_351 1071 RESIDUE 1 NIL WAT 1
352 WAT_352 1074 RESIDUE 1 NIL WAT 1
353 WAT_353 1077 RESIDUE 1 NIL WAT 1
354 WAT_354 1080 RESIDUE 1 NIL WAT 1
355 WAT_355 1083 RESIDUE 1 NIL WAT 1
356 WAT_356 1086 RESIDUE 1 NIL WAT 1
357 WAT_357 1089 RESIDUE 1 NIL WAT 1
358 WAT_358 1092 RESIDUE 1 NIL WAT 1
359 WAT_359 1095 RESIDUE 1 NIL WAT 1
360 WAT_360 1098 RESIDUE 1 NIL WAT 1
361 WAT_361 1101 RESIDUE 1 NIL WAT 1
362 WAT_362 1104 RESIDUE 1 NIL WAT 1
363 WAT_363 1107 RESIDUE 1 NIL WAT 1
364 WAT_364 1110 RESIDUE 1 NIL WAT 1
365 WAT_365 1113 RESIDUE 1 NIL WAT 1
366 WAT_366 1116 RESIDUE 1 NIL WAT 1
367 WAT_367 1119 RESIDUE 1 NIL WAT 1
368 WAT_368 1122 RESIDUE 1 NIL WAT 1
369 WAT_369 1125 RESIDUE 1 NIL WAT 1
370 WAT_370 1128 RESIDUE 1 NIL WAT 1
371 WAT_371 1131 RESIDUE 1 NIL WAT 1
372 WAT_372 1134 RESIDUE 1 NIL WAT 1
373 WAT_373 1137 RESIDUE 1 NIL WAT 1
374 WAT_374 1140 RESIDUE 1 NIL WAT 1
375 WAT_375 1143 RESIDUE 1 NIL WAT 1
376 WAT_376 1146 RESIDUE 1 NIL WAT 1
377 WAT_377 1149 RESIDUE 1 NIL WAT 1
378 WAT_378 1152 RESIDUE 1 NIL WAT 1
379 WAT_379 1155 RESIDUE 1 NIL WAT 1
380 WAT_380 1158 RESIDUE 1 NIL WAT 1
381 WAT_381 1161 RESIDUE 1 NIL WAT 1
382 WAT_382 1164 RESIDUE 1 NIL WAT 1
383 WAT_383 1167 RESIDUE 1 NIL WAT 1
384 WAT_384 1170 RESIDUE 1 NIL WAT 1
385 WAT_385 1173 RESIDUE 1 NIL WAT 1
386 WAT_386 1176 RESIDUE 1 NIL WAT 1
387 WAT_387 1179 RESIDUE 1 NIL WAT 1
388 WAT_388 1182 RESIDUE 1 NIL WAT 1
389 WAT_389 1185 RESIDUE 1 NIL WAT 1
390 WAT_390 1188 RESIDUE 1 NIL WAT 1
391 WAT_391 1191 RESIDUE 1 NIL WAT 1
392 WAT_392 1194 RESIDUE 1 NIL WAT 1
393 WAT_393 1197 RESIDUE 1 NIL WAT 1
394 WAT_394 1200 RESIDUE 1 NIL WAT 1
395 WAT_395 1203 RESIDUE 1 NIL WAT 1
396 WAT_396 1206 RESIDUE 1 NIL WAT 1
397 WAT_397 1209 RESIDUE 1 NIL WAT 1
398 WAT_398 1212 RESIDUE 1 NIL WAT 1
399 WAT_399 1215 RESIDUE 1 NIL WAT 1
400 WAT_400 1218 RESIDUE 1 NIL WAT 1
401 WAT_401 1221 RESIDUE 1 NIL WAT 1
402 WAT_402 1224 RESIDUE 1 NIL WAT 1
403 WAT_403 1227 RESIDUE 1 NIL WAT 1
404 WAT_404 1230 RESIDUE 1 NIL WAT 1
405 WAT_405 1233 RESIDUE 1 NIL WAT 1
406 WAT_406 1236 RESIDUE 1 NIL WAT 1
407 WAT_407 1239 RESIDUE 1 NIL WAT 1
408 WAT_408 1242 RESIDUE 1 NIL WAT 1
409 WAT_409 1245 RESIDUE 1 NIL WAT 1
410 WAT_410 1248 RESIDUE 1 NIL WAT 1
411 WAT_411 1251 RESIDUE 1 NIL WAT 1
412 WAT_412 1254 RESIDUE 1 NIL WAT 1
413 WAT_413 1257 RESIDUE 1 NIL WAT 1
414 WAT_414 1260 RESIDUE 1 NIL WAT 1
415 WAT_415 1263 RESIDUE 1 NIL WAT 1
416 WAT_416 1266 RESIDUE 1 NIL WAT 1
417 WAT_417 1269 RESIDUE 1 NIL WAT 1
418 WAT_418 1272 RESIDUE 1 NIL WAT 1
419 WAT_419 1275 RESIDUE 1 NIL WAT 1
420 WAT_420 1278 RESIDUE 1 NIL WAT 1
421 WAT_421 1281 RESIDUE 1 NIL WAT 1
422 WAT_422 1284 RESIDUE 1 NIL WAT 1
423 WAT_423 1287 RESIDUE 1 NIL WAT 1
424 WAT_424 1290 RESIDUE 1 NIL WAT 1
425 WAT_425 1293 RESIDUE 1 NIL WAT 1
426 WAT_426 1296 RESIDUE 1 NIL WAT 1
427 WAT_427 1299 RESIDUE 1 NIL WAT 1
428 WAT_428 1302 RESIDUE 1 NIL WAT 1
429 WAT_429 1305 RESIDUE 1 NIL WAT 1
430 WAT_430 1308 RESIDUE 1 NIL WAT 1
431 WAT_431 1311 RESIDUE 1 NIL WAT 1
432 WAT_432 1314 RESIDUE 1 NIL WAT 1
433 WAT_433 1317 RESIDUE 1 NIL WAT 1
434 WAT_434 1320 RESIDUE 1 NIL WAT 1
435 WAT_435 1323 RESIDUE 1 NIL WAT 1
436 WAT_436 1326 RESIDUE 1 NIL WAT 1
437 WAT_437 1329 RESIDUE 1 NIL WAT 1
438 WAT_438 1332 RESIDUE 1 NIL WAT 1
439 WAT_439 1335 RESIDUE 1 NIL WAT 1
440 WAT_440 1338 RESIDUE 1 NIL WAT 1
441 WAT_441 1341 RESIDUE 1 NIL WAT 1
442 WAT_442 1344 RESIDUE 1 NIL WAT 1
443 WAT_443 1347 RESIDUE 1 NIL WAT 1
444 WAT_444 1350 RESIDUE 1 NIL WAT 1
445 WAT_445 1353 RESIDUE 1 NIL WAT 1
446 WAT_446 1356 RESIDUE 1 NIL WAT 1
447 WAT_447 1359 RESIDUE 1 NIL WAT 1
448 WAT_448 1362 RESIDUE 1 NIL WAT 1
449 WAT_449 1365 RESIDUE 1 NIL WAT 1
450 WAT_450 1368 RESIDUE 1 NIL WAT 1
451 WAT_451 1371 RESIDUE 1 NIL WAT 1
452 WAT_452 1374 RESIDUE 1 NIL WAT 1
453 WAT_453 1377 RESIDUE 1 NIL WAT 1
454 WAT_454 1380 RESIDUE 1 NIL WAT 1
455 WAT_455 1383 RESIDUE 1 NIL WAT 1
456 WAT_456 1386 RESIDUE 1 NIL WAT 1
457 WAT_457 1389 RESIDUE 1 NIL WAT 1
458 WAT_458 1392 RESIDUE 1 NIL WAT 1
459 WAT_459 1395 RESIDUE 1 NIL WAT 1
460 WAT_460 1398 RESIDUE 1 NIL WAT 1
461 WAT_461 1401 RESIDUE 1 NIL WAT 1
462 WAT_462 1404 RESIDUE 1 NIL WAT 1
463 WAT_463 1407 RESIDUE 1 NIL WAT 1
464 WAT_464 1410 RESIDUE 1 NIL WAT 1
465 WAT_465 1413 RESIDUE 1 NIL WAT 1
466 WAT_466 1416 RESIDUE 1 NIL WAT 1
467 WAT_467 1419 RESIDUE 1 NIL WAT 1
468 WAT_468 1422 RESIDUE 1 NIL WAT 1
469 WAT_469 1425 RESIDUE 1 NIL WAT 1
470 WAT_470 1428 RESIDUE 1 NIL WAT 1
471 WAT_471 1431 RESIDUE 1 NIL WAT 1
472 WAT_472 1434 RESIDUE 1 NIL WAT 1
473 WAT_473 1437 RESIDUE 1 NIL WAT 1
474 WAT_474 1440 RESIDUE 1 NIL WAT 1
475 WAT_475 1443 RESIDUE 1 NIL WAT 1
476 WAT_476 1446 RESIDUE 1 NIL WAT 1
477 WAT_477 1449 RESIDUE 1 NIL WAT 1
478 WAT_478 1452 RESIDUE 1 NIL WAT 1
479 WAT_479 1455 RESIDUE 1 NIL WAT 1
480 WAT_480 1458 RESIDUE 1 NIL WAT 1
481 WAT_481 1461 RESIDUE 1 NIL WAT 1
482 WAT_482 1464 RESIDUE 1 NIL WAT 1
483 WAT_483 1467 RESIDUE 1 NIL WAT 1
484 WAT_484 1470 RESIDUE 1 NIL WAT 1
485 WAT_485 1473 RESIDUE 1 NIL WAT 1
