@<TRIPOS>MOLECULE
NIL
1832 1832 604 0 0
POLYMER
CHARGES


@<TRIPOS>ATOM
1 C1 24.6303 25.056 27.0626 c2 1 COR_1 -2.7822e-01
2 C_4 2.5052e+01 2.4811e+01 2.5846e+01 c2 1 COR_1 -9.1923e-02
3 C_12 2.5166e+01 2.6022e+01 2.7748e+01 c2 1 COR_1 3.7898e-01
4 C3 2.6073e+01 2.5548e+01 2.5292e+01 c2 1 COR_1 -1.6592e-01
5 C5 2.6231e+01 2.6748e+01 2.7347e+01 c2 1 COR_1 -2.2222e-01
6 C_8 2.6696e+01 2.6460e+01 2.6074e+01 c2 1 COR_1 -9.6923e-02
7 H1 2.3795e+01 2.4476e+01 2.7448e+01 ha 1 COR_1 1.3308e-01
8 H2 2.4587e+01 2.4003e+01 2.5285e+01 ha 1 COR_1 1.3208e-01
9 H3 2.6487e+01 2.5356e+01 2.4304e+01 ha 1 COR_1 1.3308e-01
10 H4 2.6717e+01 2.7459e+01 2.8012e+01 ha 1 COR_1 1.5008e-01
11 H5 2.7488e+01 2.7024e+01 2.5586e+01 ha 1 COR_1 1.3408e-01
12 O1 2.4748e+01 2.6241e+01 2.9013e+01 oh 1 COR_1 -6.2422e-01
13 H7 2.3974e+01 2.5687e+01 2.9216e+01 ho 1 COR_1 4.1808e-01
14 C1 2.4630e+01 2.5056e+01 2.7063e+01 c2 2 COR_2 -2.7822e-01
15 C_4 2.5052e+01 2.4811e+01 2.5846e+01 c2 2 COR_2 -9.1923e-02
16 C_12 2.5166e+01 2.6022e+01 2.7748e+01 c2 2 COR_2 3.7898e-01
17 C3 2.6073e+01 2.5548e+01 2.5292e+01 c2 2 COR_2 -1.6592e-01
18 C5 2.6231e+01 2.6748e+01 2.7347e+01 c2 2 COR_2 -2.2222e-01
19 C_8 2.6696e+01 2.6460e+01 2.6074e+01 c2 2 COR_2 -9.6923e-02
20 H1 2.3795e+01 2.4476e+01 2.7448e+01 ha 2 COR_2 1.3308e-01
21 H2 2.4587e+01 2.4003e+01 2.5285e+01 ha 2 COR_2 1.3208e-01
22 H3 2.6487e+01 2.5356e+01 2.4304e+01 ha 2 COR_2 1.3308e-01
23 H4 2.6717e+01 2.7459e+01 2.8012e+01 ha 2 COR_2 1.5008e-01
24 H5 2.7488e+01 2.7024e+01 2.5586e+01 ha 2 COR_2 1.3408e-01
25 O1 2.4748e+01 2.6241e+01 2.9013e+01 oh 2 COR_2 -6.2422e-01
26 H7 2.3974e+01 2.5687e+01 2.9216e+01 ho 2 COR_2 4.1808e-01
27 O 3.3728e+01 2.4958e+01 2.7779e+01 OW 3 WAT_3 -8.3400e-01
28 H1 3.4524e+01 2.5239e+01 2.8230e+01 HW 3 WAT_3 4.1700e-01
29 H2 3.3223e+01 2.5762e+01 2.7661e+01 HW 3 WAT_3 4.1700e-01
30 O 2.5408e+01 2.9961e+01 2.8339e+01 OW 4 WAT_4 -8.3400e-01
31 H1 2.6056e+01 2.9443e+01 2.8816e+01 HW 4 WAT_4 4.1700e-01
32 H2 2.5910e+01 3.0396e+01 2.7649e+01 HW 4 WAT_4 4.1700e-01
33 O 3.1866e+01 3.5002e+01 3.7328e+01 OW 5 WAT_5 -8.3400e-01
34 H1 3.2778e+01 3.5140e+01 3.7583e+01 HW 5 WAT_5 4.1700e-01
35 H2 3.1875e+01 3.4181e+01 3.6837e+01 HW 5 WAT_5 4.1700e-01
36 O 3.7124e+01 3.4413e+01 2.3865e+01 OW 6 WAT_6 -8.3400e-01
37 H1 3.7535e+01 3.5226e+01 2.4156e+01 HW 6 WAT_6 4.1700e-01
38 H2 3.6617e+01 3.4117e+01 2.4621e+01 HW 6 WAT_6 4.1700e-01
39 O 1.4235e+01 3.0595e+01 2.1108e+01 OW 7 WAT_7 -8.3400e-01
40 H1 1.5156e+01 3.0623e+01 2.1367e+01 HW 7 WAT_7 4.1700e-01
41 H2 1.3891e+01 2.9808e+01 2.1531e+01 HW 7 WAT_7 4.1700e-01
42 O 3.0117e+01 3.2816e+01 2.7659e+01 OW 8 WAT_8 -8.3400e-01
43 H1 2.9814e+01 3.2038e+01 2.7191e+01 HW 8 WAT_8 4.1700e-01
44 H2 2.9313e+01 3.3257e+01 2.7936e+01 HW 8 WAT_8 4.1700e-01
45 O 2.8070e+01 3.7049e+01 3.7277e+01 OW 9 WAT_9 -8.3400e-01
46 H1 2.7389e+01 3.6390e+01 3.7410e+01 HW 9 WAT_9 4.1700e-01
47 H2 2.8237e+01 3.7034e+01 3.6334e+01 HW 9 WAT_9 4.1700e-01
48 O 2.2834e+01 2.7513e+01 3.2501e+01 OW 10 WAT_10 -8.3400e-01
49 H1 2.3177e+01 2.6665e+01 3.2782e+01 HW 10 WAT_10 4.1700e-01
50 H2 2.3609e+01 2.8015e+01 3.2252e+01 HW 10 WAT_10 4.1700e-01
51 O 2.6248e+01 3.6486e+01 2.8337e+01 OW 11 WAT_11 -8.3400e-01
52 H1 2.5472e+01 3.6492e+01 2.8896e+01 HW 11 WAT_11 4.1700e-01
53 H2 2.5993e+01 3.5960e+01 2.7579e+01 HW 11 WAT_11 4.1700e-01
54 O 3.0579e+01 1.3793e+01 1.5517e+01 OW 12 WAT_12 -8.3400e-01
55 H1 3.0454e+01 1.3356e+01 1.4674e+01 HW 12 WAT_12 4.1700e-01
56 H2 2.9900e+01 1.4468e+01 1.5539e+01 HW 12 WAT_12 4.1700e-01
57 O 3.5005e+01 2.9838e+01 2.7990e+01 OW 13 WAT_13 -8.3400e-01
58 H1 3.4750e+01 2.9953e+01 2.7074e+01 HW 13 WAT_13 4.1700e-01
59 H2 3.5182e+01 3.0725e+01 2.8302e+01 HW 13 WAT_13 4.1700e-01
60 O 3.0121e+01 3.1985e+01 3.3886e+01 OW 14 WAT_14 -8.3400e-01
61 H1 2.9585e+01 3.2525e+01 3.3306e+01 HW 14 WAT_14 4.1700e-01
62 H2 3.0665e+01 3.1465e+01 3.3294e+01 HW 14 WAT_14 4.1700e-01
63 O 3.4830e+01 3.2664e+01 2.8437e+01 OW 15 WAT_15 -8.3400e-01
64 H1 3.3968e+01 3.2977e+01 2.8163e+01 HW 15 WAT_15 4.1700e-01
65 H2 3.4997e+01 3.3115e+01 2.9264e+01 HW 15 WAT_15 4.1700e-01
66 O 1.3145e+01 2.2862e+01 3.4284e+01 OW 16 WAT_16 -8.3400e-01
67 H1 1.3470e+01 2.3509e+01 3.4910e+01 HW 16 WAT_16 4.1700e-01
68 H2 1.2827e+01 2.3382e+01 3.3546e+01 HW 16 WAT_16 4.1700e-01
69 O 3.8458e+01 1.6918e+01 2.0910e+01 OW 17 WAT_17 -8.3400e-01
70 H1 3.8521e+01 1.6231e+01 2.0246e+01 HW 17 WAT_17 4.1700e-01
71 H2 3.8621e+01 1.7730e+01 2.0431e+01 HW 17 WAT_17 4.1700e-01
72 O 2.5655e+01 3.4504e+01 2.0507e+01 OW 18 WAT_18 -8.3400e-01
73 H1 2.6293e+01 3.4626e+01 2.1210e+01 HW 18 WAT_18 4.1700e-01
74 H2 2.5865e+01 3.3645e+01 2.0140e+01 HW 18 WAT_18 4.1700e-01
75 O 3.3301e+01 2.4143e+01 3.8844e+01 OW 19 WAT_19 -8.3400e-01
76 H1 3.2990e+01 2.3637e+01 3.9595e+01 HW 19 WAT_19 4.1700e-01
77 H2 3.2718e+01 2.3891e+01 3.8128e+01 HW 19 WAT_19 4.1700e-01
78 O 3.6652e+01 1.8340e+01 3.5088e+01 OW 20 WAT_20 -8.3400e-01
79 H1 3.6748e+01 1.8439e+01 3.4141e+01 HW 20 WAT_20 4.1700e-01
80 H2 3.6957e+01 1.9173e+01 3.5447e+01 HW 20 WAT_20 4.1700e-01
81 O 3.1674e+01 2.7660e+01 3.5388e+01 OW 21 WAT_21 -8.3400e-01
82 H1 3.2602e+01 2.7698e+01 3.5157e+01 HW 21 WAT_21 4.1700e-01
83 H2 3.1651e+01 2.7872e+01 3.6321e+01 HW 21 WAT_21 4.1700e-01
84 O 3.0135e+01 1.3879e+01 3.2114e+01 OW 22 WAT_22 -8.3400e-01
85 H1 2.9392e+01 1.3828e+01 3.2714e+01 HW 22 WAT_22 4.1700e-01
86 H2 2.9743e+01 1.3836e+01 3.1242e+01 HW 22 WAT_22 4.1700e-01
87 O 3.0450e+01 3.6428e+01 2.6784e+01 OW 23 WAT_23 -8.3400e-01
88 H1 3.1201e+01 3.6277e+01 2.6210e+01 HW 23 WAT_23 4.1700e-01
89 H2 3.0778e+01 3.6239e+01 2.7663e+01 HW 23 WAT_23 4.1700e-01
90 O 2.7312e+01 2.8899e+01 3.0356e+01 OW 24 WAT_24 -8.3400e-01
91 H1 2.8072e+01 2.9088e+01 2.9805e+01 HW 24 WAT_24 4.1700e-01
92 H2 2.7591e+01 2.8168e+01 3.0906e+01 HW 24 WAT_24 4.1700e-01
93 O 2.4949e+01 2.5435e+01 3.7623e+01 OW 25 WAT_25 -8.3400e-01
94 H1 2.5416e+01 2.4998e+01 3.8335e+01 HW 25 WAT_25 4.1700e-01
95 H2 2.4683e+01 2.6277e+01 3.7992e+01 HW 25 WAT_25 4.1700e-01
96 O 2.9894e+01 1.7205e+01 2.4589e+01 OW 26 WAT_26 -8.3400e-01
97 H1 2.9812e+01 1.6536e+01 2.5269e+01 HW 26 WAT_26 4.1700e-01
98 H2 2.9447e+01 1.6831e+01 2.3830e+01 HW 26 WAT_26 4.1700e-01
99 O 1.6422e+01 1.3528e+01 2.5761e+01 OW 27 WAT_27 -8.3400e-01
100 H1 1.6710e+01 1.3377e+01 2.4861e+01 HW 27 WAT_27 4.1700e-01
101 H2 1.5953e+01 1.2728e+01 2.6000e+01 HW 27 WAT_27 4.1700e-01
102 O 3.2210e+01 2.8458e+01 3.8029e+01 OW 28 WAT_28 -8.3400e-01
103 H1 3.2911e+01 2.7944e+01 3.8430e+01 HW 28 WAT_28 4.1700e-01
104 H2 3.1878e+01 2.9006e+01 3.8740e+01 HW 28 WAT_28 4.1700e-01
105 O 2.4444e+01 1.3626e+01 2.6302e+01 OW 29 WAT_29 -8.3400e-01
106 H1 2.3815e+01 1.3827e+01 2.5609e+01 HW 29 WAT_29 4.1700e-01
107 H2 2.5300e+01 1.3723e+01 2.5885e+01 HW 29 WAT_29 4.1700e-01
108 O 3.7881e+01 3.0826e+01 2.3805e+01 OW 30 WAT_30 -8.3400e-01
109 H1 3.8279e+01 3.1214e+01 2.4584e+01 HW 30 WAT_30 4.1700e-01
110 H2 3.8043e+01 2.9887e+01 2.3895e+01 HW 30 WAT_30 4.1700e-01
111 O 3.4977e+01 3.3011e+01 3.2554e+01 OW 31 WAT_31 -8.3400e-01
112 H1 3.4043e+01 3.2800e+01 3.2545e+01 HW 31 WAT_31 4.1700e-01
113 H2 3.5051e+01 3.3795e+01 3.2010e+01 HW 31 WAT_31 4.1700e-01
114 O 1.4232e+01 2.0399e+01 2.9805e+01 OW 32 WAT_32 -8.3400e-01
115 H1 1.4484e+01 1.9630e+01 2.9294e+01 HW 32 WAT_32 4.1700e-01
116 H2 1.3984e+01 2.0047e+01 3.0660e+01 HW 32 WAT_32 4.1700e-01
117 O 1.4032e+01 3.6869e+01 3.9836e+01 OW 33 WAT_33 -8.3400e-01
118 H1 1.3631e+01 3.7650e+01 4.0218e+01 HW 33 WAT_33 4.1700e-01
119 H2 1.4971e+01 3.7057e+01 3.9840e+01 HW 33 WAT_33 4.1700e-01
120 O 3.4041e+01 3.0351e+01 3.4942e+01 OW 34 WAT_34 -8.3400e-01
121 H1 3.3890e+01 2.9407e+01 3.4994e+01 HW 34 WAT_34 4.1700e-01
122 H2 3.4726e+01 3.0519e+01 3.5589e+01 HW 34 WAT_34 4.1700e-01
123 O 2.8805e+01 3.0120e+01 2.8118e+01 OW 35 WAT_35 -8.3400e-01
124 H1 2.8303e+01 3.0517e+01 2.7407e+01 HW 35 WAT_35 4.1700e-01
125 H2 2.9339e+01 2.9451e+01 2.7689e+01 HW 35 WAT_35 4.1700e-01
126 O 1.3345e+01 2.4742e+01 2.7560e+01 OW 36 WAT_36 -8.3400e-01
127 H1 1.2976e+01 2.3907e+01 2.7846e+01 HW 36 WAT_36 4.1700e-01
128 H2 1.3925e+01 2.4513e+01 2.6834e+01 HW 36 WAT_36 4.1700e-01
129 O 3.4535e+01 2.9830e+01 3.1936e+01 OW 37 WAT_37 -8.3400e-01
130 H1 3.5081e+01 3.0616e+01 3.1940e+01 HW 37 WAT_37 4.1700e-01
131 H2 3.4079e+01 2.9852e+01 3.2778e+01 HW 37 WAT_37 4.1700e-01
132 O 2.8478e+01 2.5617e+01 3.6201e+01 OW 38 WAT_38 -8.3400e-01
133 H1 2.7936e+01 2.4861e+01 3.5978e+01 HW 38 WAT_38 4.1700e-01
134 H2 2.9360e+01 2.5370e+01 3.5921e+01 HW 38 WAT_38 4.1700e-01
135 O 1.5400e+01 3.6132e+01 2.3753e+01 OW 39 WAT_39 -8.3400e-01
136 H1 1.6271e+01 3.6515e+01 2.3854e+01 HW 39 WAT_39 4.1700e-01
137 H2 1.5378e+01 3.5822e+01 2.2848e+01 HW 39 WAT_39 4.1700e-01
138 O 3.0338e+01 2.6416e+01 3.3371e+01 OW 40 WAT_40 -8.3400e-01
139 H1 3.0725e+01 2.6953e+01 3.4062e+01 HW 40 WAT_40 4.1700e-01
140 H2 3.0940e+01 2.5677e+01 3.3276e+01 HW 40 WAT_40 4.1700e-01
141 O 3.4542e+01 3.6372e+01 3.3883e+01 OW 41 WAT_41 -8.3400e-01
142 H1 3.5108e+01 3.6954e+01 3.3375e+01 HW 41 WAT_41 4.1700e-01
143 H2 3.5039e+01 3.6191e+01 3.4680e+01 HW 41 WAT_41 4.1700e-01
144 O 3.7113e+01 3.1308e+01 1.6672e+01 OW 42 WAT_42 -8.3400e-01
145 H1 3.7031e+01 3.0578e+01 1.6059e+01 HW 42 WAT_42 4.1700e-01
146 H2 3.7861e+01 3.1076e+01 1.7222e+01 HW 42 WAT_42 4.1700e-01
147 O 2.6706e+01 3.0063e+01 1.5663e+01 OW 43 WAT_43 -8.3400e-01
148 H1 2.7446e+01 3.0309e+01 1.6218e+01 HW 43 WAT_43 4.1700e-01
149 H2 2.7089e+01 2.9932e+01 1.4796e+01 HW 43 WAT_43 4.1700e-01
150 O 3.7349e+01 3.8428e+01 3.0168e+01 OW 44 WAT_44 -8.3400e-01
151 H1 3.8028e+01 3.8189e+01 2.9537e+01 HW 44 WAT_44 4.1700e-01
152 H2 3.6701e+01 3.8908e+01 2.9652e+01 HW 44 WAT_44 4.1700e-01
153 O 2.6281e+01 3.4905e+01 3.7208e+01 OW 45 WAT_45 -8.3400e-01
154 H1 2.6377e+01 3.3953e+01 3.7209e+01 HW 45 WAT_45 4.1700e-01
155 H2 2.5729e+01 3.5089e+01 3.6448e+01 HW 45 WAT_45 4.1700e-01
156 O 2.0185e+01 3.6300e+01 3.1920e+01 OW 46 WAT_46 -8.3400e-01
157 H1 2.0945e+01 3.5740e+01 3.2076e+01 HW 46 WAT_46 4.1700e-01
158 H2 1.9530e+01 3.5715e+01 3.1539e+01 HW 46 WAT_46 4.1700e-01
159 O 2.9300e+01 3.3156e+01 3.7511e+01 OW 47 WAT_47 -8.3400e-01
160 H1 2.9436e+01 3.3919e+01 3.6950e+01 HW 47 WAT_47 4.1700e-01
161 H2 2.9358e+01 3.3499e+01 3.8402e+01 HW 47 WAT_47 4.1700e-01
162 O 3.1552e+01 3.7973e+01 3.1166e+01 OW 48 WAT_48 -8.3400e-01
163 H1 3.2066e+01 3.8306e+01 3.0430e+01 HW 48 WAT_48 4.1700e-01
164 H2 3.1525e+01 3.8699e+01 3.1788e+01 HW 48 WAT_48 4.1700e-01
165 O 3.2292e+01 3.2690e+01 3.1883e+01 OW 49 WAT_49 -8.3400e-01
166 H1 3.2126e+01 3.3622e+01 3.1741e+01 HW 49 WAT_49 4.1700e-01
167 H2 3.1769e+01 3.2249e+01 3.1214e+01 HW 49 WAT_49 4.1700e-01
168 O 3.2293e+01 3.4405e+01 2.8718e+01 OW 50 WAT_50 -8.3400e-01
169 H1 3.1628e+01 3.3727e+01 2.8600e+01 HW 50 WAT_50 4.1700e-01
170 H2 3.1885e+01 3.5040e+01 2.9307e+01 HW 50 WAT_50 4.1700e-01
171 O 3.2172e+01 3.5624e+01 3.2616e+01 OW 51 WAT_51 -8.3400e-01
172 H1 3.1914e+01 3.6481e+01 3.2277e+01 HW 51 WAT_51 4.1700e-01
173 H2 3.2939e+01 3.5801e+01 3.3159e+01 HW 51 WAT_51 4.1700e-01
174 O 3.5244e+01 2.8017e+01 3.7896e+01 OW 52 WAT_52 -8.3400e-01
175 H1 3.5312e+01 2.8236e+01 3.8825e+01 HW 52 WAT_52 4.1700e-01
176 H2 3.5921e+01 2.7354e+01 3.7756e+01 HW 52 WAT_52 4.1700e-01
177 O 1.5560e+01 3.0242e+01 3.2446e+01 OW 53 WAT_53 -8.3400e-01
178 H1 1.5395e+01 2.9429e+01 3.2924e+01 HW 53 WAT_53 4.1700e-01
179 H2 1.4791e+01 3.0350e+01 3.1886e+01 HW 53 WAT_53 4.1700e-01
180 O 1.6617e+01 2.7152e+01 1.3505e+01 OW 54 WAT_54 -8.3400e-01
181 H1 1.6067e+01 2.7565e+01 1.2840e+01 HW 54 WAT_54 4.1700e-01
182 H2 1.6815e+01 2.6286e+01 1.3148e+01 HW 54 WAT_54 4.1700e-01
183 O 3.1321e+01 2.2323e+01 2.1988e+01 OW 55 WAT_55 -8.3400e-01
184 H1 3.1900e+01 2.1647e+01 2.2341e+01 HW 55 WAT_55 4.1700e-01
185 H2 3.0439e+01 2.1972e+01 2.2112e+01 HW 55 WAT_55 4.1700e-01
186 O 3.8422e+01 3.6859e+01 3.4417e+01 OW 56 WAT_56 -8.3400e-01
187 H1 3.8214e+01 3.6478e+01 3.5271e+01 HW 56 WAT_56 4.1700e-01
188 H2 3.9069e+01 3.7537e+01 3.4608e+01 HW 56 WAT_56 4.1700e-01
189 O 3.4307e+01 2.7671e+01 3.5280e+01 OW 57 WAT_57 -8.3400e-01
190 H1 3.5114e+01 2.7160e+01 3.5221e+01 HW 57 WAT_57 4.1700e-01
191 H2 3.4289e+01 2.7987e+01 3.6183e+01 HW 57 WAT_57 4.1700e-01
192 O 1.6908e+01 2.9965e+01 2.2324e+01 OW 58 WAT_58 -8.3400e-01
193 H1 1.6692e+01 3.0571e+01 2.3033e+01 HW 58 WAT_58 4.1700e-01
194 H2 1.7732e+01 3.0296e+01 2.1968e+01 HW 58 WAT_58 4.1700e-01
195 O 3.7841e+01 2.8974e+01 3.4794e+01 OW 59 WAT_59 -8.3400e-01
196 H1 3.8395e+01 2.9362e+01 3.5471e+01 HW 59 WAT_59 4.1700e-01
197 H2 3.7526e+01 2.9721e+01 3.4285e+01 HW 59 WAT_59 4.1700e-01
198 O 2.9169e+01 3.8909e+01 1.8321e+01 OW 60 WAT_60 -8.3400e-01
199 H1 2.8547e+01 3.8182e+01 1.8282e+01 HW 60 WAT_60 4.1700e-01
200 H2 2.9612e+01 3.8890e+01 1.7473e+01 HW 60 WAT_60 4.1700e-01
201 O 2.5423e+01 2.8853e+01 3.2150e+01 OW 61 WAT_61 -8.3400e-01
202 H1 2.6033e+01 2.8910e+01 3.1415e+01 HW 61 WAT_61 4.1700e-01
203 H2 2.5972e+01 2.8630e+01 3.2901e+01 HW 61 WAT_61 4.1700e-01
204 O 3.3206e+01 3.2974e+01 1.5163e+01 OW 62 WAT_62 -8.3400e-01
205 H1 3.2329e+01 3.2772e+01 1.4838e+01 HW 62 WAT_62 4.1700e-01
206 H2 3.3177e+01 3.2742e+01 1.6091e+01 HW 62 WAT_62 4.1700e-01
207 O 3.5723e+01 1.3653e+01 2.8564e+01 OW 63 WAT_63 -8.3400e-01
208 H1 3.5931e+01 1.4553e+01 2.8312e+01 HW 63 WAT_63 4.1700e-01
209 H2 3.5592e+01 1.3196e+01 2.7734e+01 HW 63 WAT_63 4.1700e-01
210 O 1.2820e+01 3.6646e+01 2.4482e+01 OW 64 WAT_64 -8.3400e-01
211 H1 1.3052e+01 3.6853e+01 2.5387e+01 HW 64 WAT_64 4.1700e-01
212 H2 1.3660e+01 3.6495e+01 2.4047e+01 HW 64 WAT_64 4.1700e-01
213 O 3.5693e+01 2.4793e+01 3.8134e+01 OW 65 WAT_65 -8.3400e-01
214 H1 3.4864e+01 2.4364e+01 3.8345e+01 HW 65 WAT_65 4.1700e-01
215 H2 3.5464e+01 2.5446e+01 3.7473e+01 HW 65 WAT_65 4.1700e-01
216 O 3.3246e+01 1.3311e+01 3.2779e+01 OW 66 WAT_66 -8.3400e-01
217 H1 3.3503e+01 1.4207e+01 3.2561e+01 HW 66 WAT_66 4.1700e-01
218 H2 3.4042e+01 1.2796e+01 3.2650e+01 HW 66 WAT_66 4.1700e-01
219 O 2.7880e+01 3.4107e+01 2.8589e+01 OW 67 WAT_67 -8.3400e-01
220 H1 2.7294e+01 3.3853e+01 2.9302e+01 HW 67 WAT_67 4.1700e-01
221 H2 2.7749e+01 3.5050e+01 2.8495e+01 HW 67 WAT_67 4.1700e-01
222 O 3.5665e+01 3.1240e+01 3.7145e+01 OW 68 WAT_68 -8.3400e-01
223 H1 3.4930e+01 3.1649e+01 3.7602e+01 HW 68 WAT_68 4.1700e-01
224 H2 3.5535e+01 3.0301e+01 3.7274e+01 HW 68 WAT_68 4.1700e-01
225 O 3.0013e+01 1.7374e+01 3.0829e+01 OW 69 WAT_69 -8.3400e-01
226 H1 3.0822e+01 1.7374e+01 3.0317e+01 HW 69 WAT_69 4.1700e-01
227 H2 2.9381e+01 1.7836e+01 3.0278e+01 HW 69 WAT_69 4.1700e-01
228 O 3.2898e+01 2.7664e+01 2.7929e+01 OW 70 WAT_70 -8.3400e-01
229 H1 3.3546e+01 2.8344e+01 2.7745e+01 HW 70 WAT_70 4.1700e-01
230 H2 3.2744e+01 2.7728e+01 2.8871e+01 HW 70 WAT_70 4.1700e-01
231 O 2.8543e+01 3.3400e+01 3.1890e+01 OW 71 WAT_71 -8.3400e-01
232 H1 2.9108e+01 3.2802e+01 3.1402e+01 HW 71 WAT_71 4.1700e-01
233 H2 2.7807e+01 3.3569e+01 3.1301e+01 HW 71 WAT_71 4.1700e-01
234 O 2.9246e+01 1.4653e+01 2.7151e+01 OW 72 WAT_72 -8.3400e-01
235 H1 2.9720e+01 1.4598e+01 2.7981e+01 HW 72 WAT_72 4.1700e-01
236 H2 2.8810e+01 1.3805e+01 2.7068e+01 HW 72 WAT_72 4.1700e-01
237 O 3.4135e+01 1.4240e+01 2.5653e+01 OW 73 WAT_73 -8.3400e-01
238 H1 3.4263e+01 1.4694e+01 2.4820e+01 HW 73 WAT_73 4.1700e-01
239 H2 3.3633e+01 1.4856e+01 2.6187e+01 HW 73 WAT_73 4.1700e-01
240 O 2.9187e+01 3.0766e+01 3.6154e+01 OW 74 WAT_74 -8.3400e-01
241 H1 2.9606e+01 3.0913e+01 3.5305e+01 HW 74 WAT_74 4.1700e-01
242 H2 2.9326e+01 3.1582e+01 3.6634e+01 HW 74 WAT_74 4.1700e-01
243 O 3.6751e+01 1.6285e+01 3.6720e+01 OW 75 WAT_75 -8.3400e-01
244 H1 3.5966e+01 1.5749e+01 3.6615e+01 HW 75 WAT_75 4.1700e-01
245 H2 3.6649e+01 1.6987e+01 3.6077e+01 HW 75 WAT_75 4.1700e-01
246 O 3.3887e+01 2.1078e+01 3.5686e+01 OW 76 WAT_76 -8.3400e-01
247 H1 3.3408e+01 2.0818e+01 3.6473e+01 HW 76 WAT_76 4.1700e-01
248 H2 3.3358e+01 2.0742e+01 3.4962e+01 HW 76 WAT_76 4.1700e-01
249 O 2.5202e+01 2.6706e+01 3.5326e+01 OW 77 WAT_77 -8.3400e-01
250 H1 2.5211e+01 2.6200e+01 3.6139e+01 HW 77 WAT_77 4.1700e-01
251 H2 2.6106e+01 2.7004e+01 3.5220e+01 HW 77 WAT_77 4.1700e-01
252 O 1.3602e+01 1.7458e+01 3.6613e+01 OW 78 WAT_78 -8.3400e-01
253 H1 1.2884e+01 1.6827e+01 3.6657e+01 HW 78 WAT_78 4.1700e-01
254 H2 1.3168e+01 1.8310e+01 3.6558e+01 HW 78 WAT_78 4.1700e-01
255 O 3.7313e+01 3.3226e+01 3.6231e+01 OW 79 WAT_79 -8.3400e-01
256 H1 3.8074e+01 3.3109e+01 3.5664e+01 HW 79 WAT_79 4.1700e-01
257 H2 3.7030e+01 3.2335e+01 3.6439e+01 HW 79 WAT_79 4.1700e-01
258 O 2.7636e+01 2.8310e+01 3.5780e+01 OW 80 WAT_80 -8.3400e-01
259 H1 2.7996e+01 2.7437e+01 3.5933e+01 HW 80 WAT_80 4.1700e-01
260 H2 2.8334e+01 2.8907e+01 3.6052e+01 HW 80 WAT_80 4.1700e-01
261 O 2.7971e+01 1.5428e+01 1.7788e+01 OW 81 WAT_81 -8.3400e-01
262 H1 2.7850e+01 1.4689e+01 1.8384e+01 HW 81 WAT_81 4.1700e-01
263 H2 2.8893e+01 1.5666e+01 1.7887e+01 HW 81 WAT_81 4.1700e-01
264 O 3.3185e+01 1.7820e+01 3.4469e+01 OW 82 WAT_82 -8.3400e-01
265 H1 3.3904e+01 1.7195e+01 3.4372e+01 HW 82 WAT_82 4.1700e-01
266 H2 3.2399e+01 1.7315e+01 3.4261e+01 HW 82 WAT_82 4.1700e-01
267 O 1.9068e+01 2.2349e+01 3.7358e+01 OW 83 WAT_83 -8.3400e-01
268 H1 1.9281e+01 2.1606e+01 3.6794e+01 HW 83 WAT_83 4.1700e-01
269 H2 1.8434e+01 2.2000e+01 3.7985e+01 HW 83 WAT_83 4.1700e-01
270 O 2.8436e+01 2.6503e+01 3.8871e+01 OW 84 WAT_84 -8.3400e-01
271 H1 2.7643e+01 2.6092e+01 3.9214e+01 HW 84 WAT_84 4.1700e-01
272 H2 2.8579e+01 2.6080e+01 3.8025e+01 HW 84 WAT_84 4.1700e-01
273 O 3.1536e+01 3.1488e+01 3.9835e+01 OW 85 WAT_85 -8.3400e-01
274 H1 3.1068e+01 3.0653e+01 3.9824e+01 HW 85 WAT_85 4.1700e-01
275 H2 3.1120e+01 3.1987e+01 4.0538e+01 HW 85 WAT_85 4.1700e-01
276 O 3.3736e+01 2.9238e+01 1.4953e+01 OW 86 WAT_86 -8.3400e-01
277 H1 3.4404e+01 2.9155e+01 1.5634e+01 HW 86 WAT_86 4.1700e-01
278 H2 3.4143e+01 2.8864e+01 1.4171e+01 HW 86 WAT_86 4.1700e-01
279 O 2.9612e+01 1.5275e+01 2.2700e+01 OW 87 WAT_87 -8.3400e-01
280 H1 3.0089e+01 1.4743e+01 2.2063e+01 HW 87 WAT_87 4.1700e-01
281 H2 2.8689e+01 1.5106e+01 2.2509e+01 HW 87 WAT_87 4.1700e-01
282 O 3.2073e+01 3.6539e+01 1.7587e+01 OW 88 WAT_88 -8.3400e-01
283 H1 3.2643e+01 3.6969e+01 1.6950e+01 HW 88 WAT_88 4.1700e-01
284 H2 3.1710e+01 3.5789e+01 1.7116e+01 HW 88 WAT_88 4.1700e-01
285 O 3.3297e+01 2.6668e+01 3.9892e+01 OW 89 WAT_89 -8.3400e-01
286 H1 3.3661e+01 2.6374e+01 4.0727e+01 HW 89 WAT_89 4.1700e-01
287 H2 3.3545e+01 2.5986e+01 3.9269e+01 HW 89 WAT_89 4.1700e-01
288 O 2.8372e+01 3.2637e+01 1.7065e+01 OW 90 WAT_90 -8.3400e-01
289 H1 2.8620e+01 3.3040e+01 1.6233e+01 HW 90 WAT_90 4.1700e-01
290 H2 2.9173e+01 3.2214e+01 1.7374e+01 HW 90 WAT_90 4.1700e-01
291 O 2.4318e+01 3.0820e+01 1.6310e+01 OW 91 WAT_91 -8.3400e-01
292 H1 2.5126e+01 3.0556e+01 1.5870e+01 HW 91 WAT_91 4.1700e-01
293 H2 2.4609e+01 3.1384e+01 1.7026e+01 HW 91 WAT_91 4.1700e-01
294 O 3.0940e+01 3.4577e+01 1.6365e+01 OW 92 WAT_92 -8.3400e-01
295 H1 3.0663e+01 3.4203e+01 1.5529e+01 HW 92 WAT_92 4.1700e-01
296 H2 3.1314e+01 3.3837e+01 1.6846e+01 HW 92 WAT_92 4.1700e-01
297 O 1.7932e+01 2.7422e+01 2.1493e+01 OW 93 WAT_93 -8.3400e-01
298 H1 1.8128e+01 2.7160e+01 2.0593e+01 HW 93 WAT_93 4.1700e-01
299 H2 1.7795e+01 2.8368e+01 2.1442e+01 HW 93 WAT_93 4.1700e-01
300 O 3.1486e+01 2.8881e+01 2.0143e+01 OW 94 WAT_94 -8.3400e-01
301 H1 3.1192e+01 2.8267e+01 2.0816e+01 HW 94 WAT_94 4.1700e-01
302 H2 3.1532e+01 2.9725e+01 2.0593e+01 HW 94 WAT_94 4.1700e-01
303 O 2.2039e+01 3.0445e+01 2.2161e+01 OW 95 WAT_95 -8.3400e-01
304 H1 2.2048e+01 3.0994e+01 2.2945e+01 HW 95 WAT_95 4.1700e-01
305 H2 2.2603e+01 2.9704e+01 2.2382e+01 HW 95 WAT_95 4.1700e-01
306 O 1.4778e+01 2.4670e+01 2.4561e+01 OW 96 WAT_96 -8.3400e-01
307 H1 1.5447e+01 2.4750e+01 2.5241e+01 HW 96 WAT_96 4.1700e-01
308 H2 1.5213e+01 2.4967e+01 2.3761e+01 HW 96 WAT_96 4.1700e-01
309 O 2.6993e+01 1.4006e+01 2.4840e+01 OW 97 WAT_97 -8.3400e-01
310 H1 2.7138e+01 1.3377e+01 2.4134e+01 HW 97 WAT_97 4.1700e-01
311 H2 2.7737e+01 1.4605e+01 2.4785e+01 HW 97 WAT_97 4.1700e-01
312 O 2.5640e+01 1.5740e+01 1.9874e+01 OW 98 WAT_98 -8.3400e-01
313 H1 2.4927e+01 1.6372e+01 1.9973e+01 HW 98 WAT_98 4.1700e-01
314 H2 2.5200e+01 1.4905e+01 1.9720e+01 HW 98 WAT_98 4.1700e-01
315 O 1.5600e+01 1.4395e+01 2.3212e+01 OW 99 WAT_99 -8.3400e-01
316 H1 1.5196e+01 1.4495e+01 2.4074e+01 HW 99 WAT_99 4.1700e-01
317 H2 1.4868e+01 1.4207e+01 2.2625e+01 HW 99 WAT_99 4.1700e-01
318 O 3.7955e+01 3.6260e+01 2.1168e+01 OW 100 WAT_100 -8.3400e-01
319 H1 3.7417e+01 3.5819e+01 2.1826e+01 HW 100 WAT_100 4.1700e-01
320 H2 3.8628e+01 3.5619e+01 2.0942e+01 HW 100 WAT_100 4.1700e-01
321 O 3.0676e+01 3.6584e+01 2.0062e+01 OW 101 WAT_101 -8.3400e-01
322 H1 2.9897e+01 3.6028e+01 2.0065e+01 HW 101 WAT_101 4.1700e-01
323 H2 3.1018e+01 3.6512e+01 1.9171e+01 HW 101 WAT_101 4.1700e-01
324 O 3.4527e+01 3.8685e+01 3.9948e+01 OW 102 WAT_102 -8.3400e-01
325 H1 3.4532e+01 3.8248e+01 3.9096e+01 HW 102 WAT_102 4.1700e-01
326 H2 3.5069e+01 3.8128e+01 4.0506e+01 HW 102 WAT_102 4.1700e-01
327 O 3.3421e+01 3.1538e+01 2.1143e+01 OW 103 WAT_103 -8.3400e-01
328 H1 3.4293e+01 3.1238e+01 2.0888e+01 HW 103 WAT_103 4.1700e-01
329 H2 3.3583e+01 3.2208e+01 2.1808e+01 HW 103 WAT_103 4.1700e-01
330 O 3.0305e+01 3.0827e+01 1.8524e+01 OW 104 WAT_104 -8.3400e-01
331 H1 2.9626e+01 3.0158e+01 1.8436e+01 HW 104 WAT_104 4.1700e-01
332 H2 3.0831e+01 3.0537e+01 1.9269e+01 HW 104 WAT_104 4.1700e-01
333 O 3.1659e+01 3.7396e+01 1.4145e+01 OW 105 WAT_105 -8.3400e-01
334 H1 3.1187e+01 3.7824e+01 1.3431e+01 HW 105 WAT_105 4.1700e-01
335 H2 3.1033e+01 3.7380e+01 1.4870e+01 HW 105 WAT_105 4.1700e-01
336 O 2.1246e+01 3.7948e+01 3.4041e+01 OW 106 WAT_106 -8.3400e-01
337 H1 2.0630e+01 3.8639e+01 3.4283e+01 HW 106 WAT_106 4.1700e-01
338 H2 2.0770e+01 3.7416e+01 3.3403e+01 HW 106 WAT_106 4.1700e-01
339 O 3.3509e+01 2.5066e+01 2.0508e+01 OW 107 WAT_107 -8.3400e-01
340 H1 3.3945e+01 2.4248e+01 2.0747e+01 HW 107 WAT_107 4.1700e-01
341 H2 3.3606e+01 2.5623e+01 2.1280e+01 HW 107 WAT_107 4.1700e-01
342 O 2.8882e+01 3.4365e+01 1.9399e+01 OW 108 WAT_108 -8.3400e-01
343 H1 2.8546e+01 3.3744e+01 1.8753e+01 HW 108 WAT_108 4.1700e-01
344 H2 2.9517e+01 3.3862e+01 1.9908e+01 HW 108 WAT_108 4.1700e-01
345 O 2.8468e+01 3.6955e+01 3.4591e+01 OW 109 WAT_109 -8.3400e-01
346 H1 2.8160e+01 3.6064e+01 3.4427e+01 HW 109 WAT_109 4.1700e-01
347 H2 2.8774e+01 3.7264e+01 3.3738e+01 HW 109 WAT_109 4.1700e-01
348 O 3.0826e+01 3.1978e+01 2.1421e+01 OW 110 WAT_110 -8.3400e-01
349 H1 3.1771e+01 3.1834e+01 2.1385e+01 HW 110 WAT_110 4.1700e-01
350 H2 3.0721e+01 3.2746e+01 2.1983e+01 HW 110 WAT_110 4.1700e-01
351 O 3.4189e+01 3.7675e+01 2.6436e+01 OW 111 WAT_111 -8.3400e-01
352 H1 3.3689e+01 3.7093e+01 2.5863e+01 HW 111 WAT_111 4.1700e-01
353 H2 3.4051e+01 3.8548e+01 2.6070e+01 HW 111 WAT_111 4.1700e-01
354 O 1.7277e+01 2.1466e+01 3.9017e+01 OW 112 WAT_112 -8.3400e-01
355 H1 1.6562e+01 2.0830e+01 3.9045e+01 HW 112 WAT_112 4.1700e-01
356 H2 1.7688e+01 2.1402e+01 3.9879e+01 HW 112 WAT_112 4.1700e-01
357 O 3.4928e+01 3.7861e+01 3.7470e+01 OW 113 WAT_113 -8.3400e-01
358 H1 3.4984e+01 3.8169e+01 3.6565e+01 HW 113 WAT_113 4.1700e-01
359 H2 3.4675e+01 3.6941e+01 3.7395e+01 HW 113 WAT_113 4.1700e-01
360 O 3.3396e+01 3.2185e+01 3.8057e+01 OW 114 WAT_114 -8.3400e-01
361 H1 3.2879e+01 3.2224e+01 3.7253e+01 HW 114 WAT_114 4.1700e-01
362 H2 3.2794e+01 3.1832e+01 3.8713e+01 HW 114 WAT_114 4.1700e-01
363 O 2.3474e+01 3.9231e+01 2.1647e+01 OW 115 WAT_115 -8.3400e-01
364 H1 2.3641e+01 3.8317e+01 2.1876e+01 HW 115 WAT_115 4.1700e-01
365 H2 2.3826e+01 3.9325e+01 2.0761e+01 HW 115 WAT_115 4.1700e-01
366 O 2.9415e+01 1.5711e+01 3.8758e+01 OW 116 WAT_116 -8.3400e-01
367 H1 2.8590e+01 1.6130e+01 3.8512e+01 HW 116 WAT_116 4.1700e-01
368 H2 3.0046e+01 1.6026e+01 3.8110e+01 HW 116 WAT_116 4.1700e-01
369 O 2.9171e+01 2.8680e+01 1.7070e+01 OW 117 WAT_117 -8.3400e-01
370 H1 2.9442e+01 2.7794e+01 1.7312e+01 HW 117 WAT_117 4.1700e-01
371 H2 2.9837e+01 2.8972e+01 1.6448e+01 HW 117 WAT_117 4.1700e-01
372 O 2.6340e+01 3.2198e+01 1.9244e+01 OW 118 WAT_118 -8.3400e-01
373 H1 2.6699e+01 3.2410e+01 1.8383e+01 HW 118 WAT_118 4.1700e-01
374 H2 2.6407e+01 3.1245e+01 1.9303e+01 HW 118 WAT_118 4.1700e-01
375 O 3.6443e+01 3.9065e+01 1.7662e+01 OW 119 WAT_119 -8.3400e-01
376 H1 3.6798e+01 3.8212e+01 1.7413e+01 HW 119 WAT_119 4.1700e-01
377 H2 3.6292e+01 3.8996e+01 1.8605e+01 HW 119 WAT_119 4.1700e-01
378 O 2.1857e+01 3.5597e+01 1.7057e+01 OW 120 WAT_120 -8.3400e-01
379 H1 2.1416e+01 3.4979e+01 1.6474e+01 HW 120 WAT_120 4.1700e-01
380 H2 2.1813e+01 3.5184e+01 1.7920e+01 HW 120 WAT_120 4.1700e-01
381 O 3.3942e+01 3.4346e+01 4.0101e+01 OW 121 WAT_121 -8.3400e-01
382 H1 3.3524e+01 3.4354e+01 4.0962e+01 HW 121 WAT_121 4.1700e-01
383 H2 3.3348e+01 3.3836e+01 3.9551e+01 HW 121 WAT_121 4.1700e-01
384 O 2.9902e+01 2.1176e+01 1.3117e+01 OW 122 WAT_122 -8.3400e-01
385 H1 3.0773e+01 2.0779e+01 1.3146e+01 HW 122 WAT_122 4.1700e-01
386 H2 2.9383e+01 2.0577e+01 1.2582e+01 HW 122 WAT_122 4.1700e-01
387 O 3.5547e+01 3.2374e+01 2.2616e+01 OW 123 WAT_123 -8.3400e-01
388 H1 3.6370e+01 3.1916e+01 2.2445e+01 HW 123 WAT_123 4.1700e-01
389 H2 3.5804e+01 3.3287e+01 2.2746e+01 HW 123 WAT_123 4.1700e-01
390 O 3.0378e+01 2.8117e+01 1.2988e+01 OW 124 WAT_124 -8.3400e-01
391 H1 2.9609e+01 2.7677e+01 1.2626e+01 HW 124 WAT_124 4.1700e-01
392 H2 3.1022e+01 2.7418e+01 1.3102e+01 HW 124 WAT_124 4.1700e-01
393 O 3.4509e+01 2.9013e+01 2.3124e+01 OW 125 WAT_125 -8.3400e-01
394 H1 3.5164e+01 2.9291e+01 2.2483e+01 HW 125 WAT_125 4.1700e-01
395 H2 3.4757e+01 2.9463e+01 2.3931e+01 HW 125 WAT_125 4.1700e-01
396 O 3.5031e+01 3.6276e+01 1.8838e+01 OW 126 WAT_126 -8.3400e-01
397 H1 3.5208e+01 3.7050e+01 1.9374e+01 HW 126 WAT_126 4.1700e-01
398 H2 3.4234e+01 3.6496e+01 1.8356e+01 HW 126 WAT_126 4.1700e-01
399 O 3.7020e+01 3.0445e+01 2.0999e+01 OW 127 WAT_127 -8.3400e-01
400 H1 3.7967e+01 3.0517e+01 2.1121e+01 HW 127 WAT_127 4.1700e-01
401 H2 3.6826e+01 3.1043e+01 2.0277e+01 HW 127 WAT_127 4.1700e-01
402 O 3.2713e+01 3.4992e+01 2.5946e+01 OW 128 WAT_128 -8.3400e-01
403 H1 3.2799e+01 3.4616e+01 2.6822e+01 HW 128 WAT_128 4.1700e-01
404 H2 3.2147e+01 3.4379e+01 2.5477e+01 HW 128 WAT_128 4.1700e-01
405 O 2.8411e+01 3.5367e+01 2.5130e+01 OW 129 WAT_129 -8.3400e-01
406 H1 2.7946e+01 3.6170e+01 2.4896e+01 HW 129 WAT_129 4.1700e-01
407 H2 2.8896e+01 3.5593e+01 2.5923e+01 HW 129 WAT_129 4.1700e-01
408 O 3.4033e+01 3.3938e+01 1.9704e+01 OW 130 WAT_130 -8.3400e-01
409 H1 3.4630e+01 3.3225e+01 1.9477e+01 HW 130 WAT_130 4.1700e-01
410 H2 3.4499e+01 3.4732e+01 1.9442e+01 HW 130 WAT_130 4.1700e-01
411 O 2.6640e+01 2.8227e+01 1.7902e+01 OW 131 WAT_131 -8.3400e-01
412 H1 2.6026e+01 2.8326e+01 1.7174e+01 HW 131 WAT_131 4.1700e-01
413 H2 2.7504e+01 2.8272e+01 1.7494e+01 HW 131 WAT_131 4.1700e-01
414 O 3.6911e+01 2.8631e+01 3.0379e+01 OW 132 WAT_132 -8.3400e-01
415 H1 3.6562e+01 2.8589e+01 3.1269e+01 HW 132 WAT_132 4.1700e-01
416 H2 3.6168e+01 2.8402e+01 2.9820e+01 HW 132 WAT_132 4.1700e-01
417 O 2.0485e+01 3.6579e+01 2.3908e+01 OW 133 WAT_133 -8.3400e-01
418 H1 2.0672e+01 3.7435e+01 2.3523e+01 HW 133 WAT_133 4.1700e-01
419 H2 2.1312e+01 3.6101e+01 2.3840e+01 HW 133 WAT_133 4.1700e-01
420 O 3.1546e+01 2.9299e+01 2.4110e+01 OW 134 WAT_134 -8.3400e-01
421 H1 3.2449e+01 2.9562e+01 2.3934e+01 HW 134 WAT_134 4.1700e-01
422 H2 3.1093e+01 3.0119e+01 2.4311e+01 HW 134 WAT_134 4.1700e-01
423 O 1.3367e+01 3.0439e+01 3.0780e+01 OW 135 WAT_135 -8.3400e-01
424 H1 1.3268e+01 2.9624e+01 3.0288e+01 HW 135 WAT_135 4.1700e-01
425 H2 1.2807e+01 3.0325e+01 3.1547e+01 HW 135 WAT_135 4.1700e-01
426 O 3.5400e+01 3.1225e+01 1.8937e+01 OW 136 WAT_136 -8.3400e-01
427 H1 3.5987e+01 3.1437e+01 1.8211e+01 HW 136 WAT_136 4.1700e-01
428 H2 3.4823e+01 3.0545e+01 1.8588e+01 HW 136 WAT_136 4.1700e-01
429 O 3.5199e+01 3.0752e+01 2.5299e+01 OW 137 WAT_137 -8.3400e-01
430 H1 3.5156e+01 3.1499e+01 2.4703e+01 HW 137 WAT_137 4.1700e-01
431 H2 3.6135e+01 3.0567e+01 2.5385e+01 HW 137 WAT_137 4.1700e-01
432 O 1.9481e+01 3.0628e+01 2.1223e+01 OW 138 WAT_138 -8.3400e-01
433 H1 1.9628e+01 3.0602e+01 2.0278e+01 HW 138 WAT_138 4.1700e-01
434 H2 2.0353e+01 3.0744e+01 2.1599e+01 HW 138 WAT_138 4.1700e-01
435 O 3.1045e+01 3.3795e+01 2.4008e+01 OW 139 WAT_139 -8.3400e-01
436 H1 3.0381e+01 3.4472e+01 2.4138e+01 HW 139 WAT_139 4.1700e-01
437 H2 3.1489e+01 3.4048e+01 2.3198e+01 HW 139 WAT_139 4.1700e-01
438 O 3.7552e+01 3.6189e+01 1.7536e+01 OW 140 WAT_140 -8.3400e-01
439 H1 3.7931e+01 3.5665e+01 1.8242e+01 HW 140 WAT_140 4.1700e-01
440 H2 3.6645e+01 3.6333e+01 1.7806e+01 HW 140 WAT_140 4.1700e-01
441 O 3.7979e+01 3.0118e+01 1.4210e+01 OW 141 WAT_141 -8.3400e-01
442 H1 3.8625e+01 3.0728e+01 1.3855e+01 HW 141 WAT_141 4.1700e-01
443 H2 3.8434e+01 2.9277e+01 1.4238e+01 HW 141 WAT_141 4.1700e-01
444 O 2.7601e+01 3.6864e+01 1.9785e+01 OW 142 WAT_142 -8.3400e-01
445 H1 2.7295e+01 3.6592e+01 2.0650e+01 HW 142 WAT_142 4.1700e-01
446 H2 2.7758e+01 3.6044e+01 1.9317e+01 HW 142 WAT_142 4.1700e-01
447 O 3.4060e+01 2.6375e+01 2.2704e+01 OW 143 WAT_143 -8.3400e-01
448 H1 3.4160e+01 2.7303e+01 2.2917e+01 HW 143 WAT_143 4.1700e-01
449 H2 3.4561e+01 2.5919e+01 2.3380e+01 HW 143 WAT_143 4.1700e-01
450 O 2.6887e+01 3.1191e+01 2.6520e+01 OW 144 WAT_144 -8.3400e-01
451 H1 2.7469e+01 3.0889e+01 2.5823e+01 HW 144 WAT_144 4.1700e-01
452 H2 2.6130e+01 3.1553e+01 2.6059e+01 HW 144 WAT_144 4.1700e-01
453 O 3.5939e+01 3.8331e+01 2.0283e+01 OW 145 WAT_145 -8.3400e-01
454 H1 3.6356e+01 3.7610e+01 2.0754e+01 HW 145 WAT_145 4.1700e-01
455 H2 3.6092e+01 3.9098e+01 2.0835e+01 HW 145 WAT_145 4.1700e-01
456 O 1.3076e+01 3.3965e+01 1.8879e+01 OW 146 WAT_146 -8.3400e-01
457 H1 1.2879e+01 3.3248e+01 1.8275e+01 HW 146 WAT_146 4.1700e-01
458 H2 1.3242e+01 3.3533e+01 1.9717e+01 HW 146 WAT_146 4.1700e-01
459 O 2.5308e+01 3.1508e+01 2.2079e+01 OW 147 WAT_147 -8.3400e-01
460 H1 2.4944e+01 3.0752e+01 2.1618e+01 HW 147 WAT_147 4.1700e-01
461 H2 2.5425e+01 3.2171e+01 2.1399e+01 HW 147 WAT_147 4.1700e-01
462 O 2.5784e+01 3.8253e+01 1.6586e+01 OW 148 WAT_148 -8.3400e-01
463 H1 2.5301e+01 3.7453e+01 1.6378e+01 HW 148 WAT_148 4.1700e-01
464 H2 2.6396e+01 3.8359e+01 1.5858e+01 HW 148 WAT_148 4.1700e-01
465 O 2.1534e+01 3.8461e+01 3.0606e+01 OW 149 WAT_149 -8.3400e-01
466 H1 2.1107e+01 3.7883e+01 3.1239e+01 HW 149 WAT_149 4.1700e-01
467 H2 2.2149e+01 3.7893e+01 3.0141e+01 HW 149 WAT_149 4.1700e-01
468 O 3.8212e+01 3.5860e+01 3.6915e+01 OW 150 WAT_150 -8.3400e-01
469 H1 3.8032e+01 3.6129e+01 3.7816e+01 HW 150 WAT_150 4.1700e-01
470 H2 3.7770e+01 3.5016e+01 3.6824e+01 HW 150 WAT_150 4.1700e-01
471 O 2.8861e+01 2.4451e+01 2.3137e+01 OW 151 WAT_151 -8.3400e-01
472 H1 2.8511e+01 2.3769e+01 2.3711e+01 HW 151 WAT_151 4.1700e-01
473 H2 2.9803e+01 2.4447e+01 2.3309e+01 HW 151 WAT_151 4.1700e-01
474 O 2.5947e+01 2.9266e+01 2.0346e+01 OW 152 WAT_152 -8.3400e-01
475 H1 2.6681e+01 2.9157e+01 2.0951e+01 HW 152 WAT_152 4.1700e-01
476 H2 2.6224e+01 2.8812e+01 1.9550e+01 HW 152 WAT_152 4.1700e-01
477 O 1.4531e+01 1.2955e+01 3.0714e+01 OW 153 WAT_153 -8.3400e-01
478 H1 1.3681e+01 1.2968e+01 3.0276e+01 HW 153 WAT_153 4.1700e-01
479 H2 1.4488e+01 1.3675e+01 3.1343e+01 HW 153 WAT_153 4.1700e-01
480 O 1.8413e+01 1.4538e+01 1.8952e+01 OW 154 WAT_154 -8.3400e-01
481 H1 1.8740e+01 1.5034e+01 1.8201e+01 HW 154 WAT_154 4.1700e-01
482 H2 1.7599e+01 1.4143e+01 1.8642e+01 HW 154 WAT_154 4.1700e-01
483 O 3.6340e+01 2.2221e+01 3.2438e+01 OW 155 WAT_155 -8.3400e-01
484 H1 3.6031e+01 2.2294e+01 3.1535e+01 HW 155 WAT_155 4.1700e-01
485 H2 3.5783e+01 2.1548e+01 3.2829e+01 HW 155 WAT_155 4.1700e-01
486 O 3.2189e+01 3.2762e+01 1.7791e+01 OW 156 WAT_156 -8.3400e-01
487 H1 3.1683e+01 3.1994e+01 1.8057e+01 HW 156 WAT_156 4.1700e-01
488 H2 3.2715e+01 3.2980e+01 1.8560e+01 HW 156 WAT_156 4.1700e-01
489 O 2.5981e+01 3.4070e+01 3.0889e+01 OW 157 WAT_157 -8.3400e-01
490 H1 2.5501e+01 3.3258e+01 3.1053e+01 HW 157 WAT_157 4.1700e-01
491 H2 2.5647e+01 3.4683e+01 3.1544e+01 HW 157 WAT_157 4.1700e-01
492 O 3.2139e+01 3.4679e+01 2.1456e+01 OW 158 WAT_158 -8.3400e-01
493 H1 3.1774e+01 3.5531e+01 2.1217e+01 HW 158 WAT_158 4.1700e-01
494 H2 3.2790e+01 3.4499e+01 2.0778e+01 HW 158 WAT_158 4.1700e-01
495 O 3.0655e+01 2.7157e+01 2.2661e+01 OW 159 WAT_159 -8.3400e-01
496 H1 3.0812e+01 2.6362e+01 2.3170e+01 HW 159 WAT_159 4.1700e-01
497 H2 3.1021e+01 2.7861e+01 2.3196e+01 HW 159 WAT_159 4.1700e-01
498 O 3.2207e+01 1.8711e+01 2.4941e+01 OW 160 WAT_160 -8.3400e-01
499 H1 3.1447e+01 1.8162e+01 2.4745e+01 HW 160 WAT_160 4.1700e-01
500 H2 3.2111e+01 1.9468e+01 2.4363e+01 HW 160 WAT_160 4.1700e-01
501 O 2.1749e+01 2.0583e+01 3.3670e+01 OW 161 WAT_161 -8.3400e-01
502 H1 2.1213e+01 1.9867e+01 3.3328e+01 HW 161 WAT_161 4.1700e-01
503 H2 2.2453e+01 2.0683e+01 3.3028e+01 HW 161 WAT_161 4.1700e-01
504 O 3.5557e+01 1.6902e+01 2.8341e+01 OW 162 WAT_162 -8.3400e-01
505 H1 3.6392e+01 1.7053e+01 2.8783e+01 HW 162 WAT_162 4.1700e-01
506 H2 3.5465e+01 1.7644e+01 2.7743e+01 HW 162 WAT_162 4.1700e-01
507 O 2.5664e+01 1.8178e+01 3.1961e+01 OW 163 WAT_163 -8.3400e-01
508 H1 2.4790e+01 1.7985e+01 3.1623e+01 HW 163 WAT_163 4.1700e-01
509 H2 2.6169e+01 1.7383e+01 3.1786e+01 HW 163 WAT_163 4.1700e-01
510 O 3.4777e+01 1.9759e+01 3.2759e+01 OW 164 WAT_164 -8.3400e-01
511 H1 3.5179e+01 1.8942e+01 3.2465e+01 HW 164 WAT_164 4.1700e-01
512 H2 3.4325e+01 1.9526e+01 3.3570e+01 HW 164 WAT_164 4.1700e-01
513 O 1.4693e+01 1.4805e+01 3.2561e+01 OW 165 WAT_165 -8.3400e-01
514 H1 1.5321e+01 1.5492e+01 3.2338e+01 HW 165 WAT_165 4.1700e-01
515 H2 1.3906e+01 1.5279e+01 3.2832e+01 HW 165 WAT_165 4.1700e-01
516 O 3.3466e+01 2.0991e+01 3.0789e+01 OW 166 WAT_166 -8.3400e-01
517 H1 3.3779e+01 2.0521e+01 3.1562e+01 HW 166 WAT_166 4.1700e-01
518 H2 3.4247e+01 2.1111e+01 3.0249e+01 HW 166 WAT_166 4.1700e-01
519 O 3.0465e+01 3.5887e+01 3.0001e+01 OW 167 WAT_167 -8.3400e-01
520 H1 3.0906e+01 3.6513e+01 3.0577e+01 HW 167 WAT_167 4.1700e-01
521 H2 2.9683e+01 3.5625e+01 3.0486e+01 HW 167 WAT_167 4.1700e-01
522 O 3.6662e+01 3.7210e+01 1.4959e+01 OW 168 WAT_168 -8.3400e-01
523 H1 3.7231e+01 3.7945e+01 1.4730e+01 HW 168 WAT_168 4.1700e-01
524 H2 3.6946e+01 3.6952e+01 1.5836e+01 HW 168 WAT_168 4.1700e-01
525 O 3.3171e+01 1.4044e+01 1.6831e+01 OW 169 WAT_169 -8.3400e-01
526 H1 3.3838e+01 1.3444e+01 1.6499e+01 HW 169 WAT_169 4.1700e-01
527 H2 3.2393e+01 1.3850e+01 1.6308e+01 HW 169 WAT_169 4.1700e-01
528 O 3.5954e+01 2.4593e+01 3.3912e+01 OW 170 WAT_170 -8.3400e-01
529 H1 3.6627e+01 2.5214e+01 3.3634e+01 HW 170 WAT_170 4.1700e-01
530 H2 3.6089e+01 2.3827e+01 3.3353e+01 HW 170 WAT_170 4.1700e-01
531 O 3.7218e+01 3.5882e+01 2.7932e+01 OW 171 WAT_171 -8.3400e-01
532 H1 3.6401e+01 3.6060e+01 2.8397e+01 HW 171 WAT_171 4.1700e-01
533 H2 3.7107e+01 3.4998e+01 2.7582e+01 HW 171 WAT_171 4.1700e-01
534 O 3.5899e+01 3.8601e+01 3.2632e+01 OW 172 WAT_172 -8.3400e-01
535 H1 3.6239e+01 3.8250e+01 3.1808e+01 HW 172 WAT_172 4.1700e-01
536 H2 3.6539e+01 3.9263e+01 3.2892e+01 HW 172 WAT_172 4.1700e-01
537 O 3.5717e+01 2.1619e+01 2.9468e+01 OW 173 WAT_173 -8.3400e-01
538 H1 3.6616e+01 2.1944e+01 2.9526e+01 HW 173 WAT_173 4.1700e-01
539 H2 3.5740e+01 2.0983e+01 2.8753e+01 HW 173 WAT_173 4.1700e-01
540 O 3.3138e+01 2.7993e+01 3.0649e+01 OW 174 WAT_174 -8.3400e-01
541 H1 3.3593e+01 2.8652e+01 3.1173e+01 HW 174 WAT_174 4.1700e-01
542 H2 3.3291e+01 2.7170e+01 3.1114e+01 HW 174 WAT_174 4.1700e-01
543 O 2.6146e+01 2.4142e+01 3.9639e+01 OW 175 WAT_175 -8.3400e-01
544 H1 2.6962e+01 2.3887e+01 4.0070e+01 HW 175 WAT_175 4.1700e-01
545 H2 2.5683e+01 2.3317e+01 3.9495e+01 HW 175 WAT_175 4.1700e-01
546 O 3.1987e+01 1.6214e+01 2.7090e+01 OW 176 WAT_176 -8.3400e-01
547 H1 3.1444e+01 1.6826e+01 2.6594e+01 HW 176 WAT_176 4.1700e-01
548 H2 3.2664e+01 1.6762e+01 2.7488e+01 HW 176 WAT_176 4.1700e-01
549 O 2.2360e+01 2.3370e+01 3.1744e+01 OW 177 WAT_177 -8.3400e-01
550 H1 2.2606e+01 2.4176e+01 3.2198e+01 HW 177 WAT_177 4.1700e-01
551 H2 2.3112e+01 2.2789e+01 3.1864e+01 HW 177 WAT_177 4.1700e-01
552 O 3.7899e+01 1.5010e+01 1.6400e+01 OW 178 WAT_178 -8.3400e-01
553 H1 3.7579e+01 1.4434e+01 1.7094e+01 HW 178 WAT_178 4.1700e-01
554 H2 3.7856e+01 1.4475e+01 1.5607e+01 HW 178 WAT_178 4.1700e-01
555 O 3.8285e+01 2.3988e+01 3.6934e+01 OW 179 WAT_179 -8.3400e-01
556 H1 3.8796e+01 2.4727e+01 3.6605e+01 HW 179 WAT_179 4.1700e-01
557 H2 3.7704e+01 2.4372e+01 3.7592e+01 HW 179 WAT_179 4.1700e-01
558 O 1.3394e+01 3.3245e+01 3.4197e+01 OW 180 WAT_180 -8.3400e-01
559 H1 1.4253e+01 3.3419e+01 3.3813e+01 HW 180 WAT_180 4.1700e-01
560 H2 1.2795e+01 3.3812e+01 3.3710e+01 HW 180 WAT_180 4.1700e-01
561 O 3.6692e+01 1.4306e+01 2.1819e+01 OW 181 WAT_181 -8.3400e-01
562 H1 3.5773e+01 1.4495e+01 2.1631e+01 HW 181 WAT_181 4.1700e-01
563 H2 3.6990e+01 1.5056e+01 2.2334e+01 HW 181 WAT_181 4.1700e-01
564 O 2.8628e+01 1.8339e+01 3.5843e+01 OW 182 WAT_182 -8.3400e-01
565 H1 2.9433e+01 1.7850e+01 3.6014e+01 HW 182 WAT_182 4.1700e-01
566 H2 2.8920e+01 1.9239e+01 3.5699e+01 HW 182 WAT_182 4.1700e-01
567 O 3.0287e+01 2.5890e+01 3.0300e+01 OW 183 WAT_183 -8.3400e-01
568 H1 3.1218e+01 2.6095e+01 3.0386e+01 HW 183 WAT_183 4.1700e-01
569 H2 3.0174e+01 2.5076e+01 3.0792e+01 HW 183 WAT_183 4.1700e-01
570 O 3.5057e+01 1.5687e+01 3.4041e+01 OW 184 WAT_184 -8.3400e-01
571 H1 3.5557e+01 1.4916e+01 3.3775e+01 HW 184 WAT_184 4.1700e-01
572 H2 3.4701e+01 1.5456e+01 3.4899e+01 HW 184 WAT_184 4.1700e-01
573 O 3.1457e+01 3.7515e+01 3.8846e+01 OW 185 WAT_185 -8.3400e-01
574 H1 3.2392e+01 3.7348e+01 3.8970e+01 HW 185 WAT_185 4.1700e-01
575 H2 3.1355e+01 3.7609e+01 3.7899e+01 HW 185 WAT_185 4.1700e-01
576 O 3.3031e+01 2.3833e+01 3.0284e+01 OW 186 WAT_186 -8.3400e-01
577 H1 3.3070e+01 2.4095e+01 2.9364e+01 HW 186 WAT_186 4.1700e-01
578 H2 3.3623e+01 2.3084e+01 3.0346e+01 HW 186 WAT_186 4.1700e-01
579 O 2.8657e+01 3.7481e+01 3.1698e+01 OW 187 WAT_187 -8.3400e-01
580 H1 2.9173e+01 3.8065e+01 3.1143e+01 HW 187 WAT_187 4.1700e-01
581 H2 2.7748e+01 3.7720e+01 3.1519e+01 HW 187 WAT_187 4.1700e-01
582 O 1.7176e+01 2.1687e+01 3.3880e+01 OW 188 WAT_188 -8.3400e-01
583 H1 1.6628e+01 2.1479e+01 3.4636e+01 HW 188 WAT_188 4.1700e-01
584 H2 1.7883e+01 2.2225e+01 3.4237e+01 HW 188 WAT_188 4.1700e-01
585 O 2.8381e+01 2.2693e+01 2.8719e+01 OW 189 WAT_189 -8.3400e-01
586 H1 2.9219e+01 2.2516e+01 2.9146e+01 HW 189 WAT_189 4.1700e-01
587 H2 2.8603e+01 2.3262e+01 2.7982e+01 HW 189 WAT_189 4.1700e-01
588 O 1.4329e+01 1.9682e+01 1.5664e+01 OW 190 WAT_190 -8.3400e-01
589 H1 1.3946e+01 1.9891e+01 1.4812e+01 HW 190 WAT_190 4.1700e-01
590 H2 1.5230e+01 1.9426e+01 1.5465e+01 HW 190 WAT_190 4.1700e-01
591 O 2.3988e+01 1.9017e+01 2.5616e+01 OW 191 WAT_191 -8.3400e-01
592 H1 2.3703e+01 1.8944e+01 2.4705e+01 HW 191 WAT_191 4.1700e-01
593 H2 2.3528e+01 1.9787e+01 2.5949e+01 HW 191 WAT_191 4.1700e-01
594 O 1.6300e+01 2.5148e+01 3.3142e+01 OW 192 WAT_192 -8.3400e-01
595 H1 1.6301e+01 2.5699e+01 3.2359e+01 HW 192 WAT_192 4.1700e-01
596 H2 1.6014e+01 2.4289e+01 3.2830e+01 HW 192 WAT_192 4.1700e-01
597 O 1.9028e+01 1.3157e+01 3.9133e+01 OW 193 WAT_193 -8.3400e-01
598 H1 1.9681e+01 1.3234e+01 3.8437e+01 HW 193 WAT_193 4.1700e-01
599 H2 1.9495e+01 1.2733e+01 3.9853e+01 HW 193 WAT_193 4.1700e-01
600 O 3.1574e+01 2.4714e+01 2.3531e+01 OW 194 WAT_194 -8.3400e-01
601 H1 3.1675e+01 2.3848e+01 2.3136e+01 HW 194 WAT_194 4.1700e-01
602 H2 3.2467e+01 2.5051e+01 2.3602e+01 HW 194 WAT_194 4.1700e-01
603 O 2.6325e+01 2.0744e+01 3.2374e+01 OW 195 WAT_195 -8.3400e-01
604 H1 2.6016e+01 1.9840e+01 3.2430e+01 HW 195 WAT_195 4.1700e-01
605 H2 2.7274e+01 2.0667e+01 3.2275e+01 HW 195 WAT_195 4.1700e-01
606 O 2.7739e+01 1.6583e+01 2.8387e+01 OW 196 WAT_196 -8.3400e-01
607 H1 2.8283e+01 1.5920e+01 2.7962e+01 HW 196 WAT_196 4.1700e-01
608 H2 2.7969e+01 1.7400e+01 2.7945e+01 HW 196 WAT_196 4.1700e-01
609 O 1.3151e+01 2.0835e+01 3.2468e+01 OW 197 WAT_197 -8.3400e-01
610 H1 1.2680e+01 2.1457e+01 3.3023e+01 HW 197 WAT_197 4.1700e-01
611 H2 1.3860e+01 2.0510e+01 3.3022e+01 HW 197 WAT_197 4.1700e-01
612 O 3.1152e+01 2.0178e+01 3.4378e+01 OW 198 WAT_198 -8.3400e-01
613 H1 3.0846e+01 2.0592e+01 3.5185e+01 HW 198 WAT_198 4.1700e-01
614 H2 3.1782e+01 1.9519e+01 3.4670e+01 HW 198 WAT_198 4.1700e-01
615 O 2.9012e+01 2.0107e+01 3.1939e+01 OW 199 WAT_199 -8.3400e-01
616 H1 2.9650e+01 1.9745e+01 3.2554e+01 HW 199 WAT_199 4.1700e-01
617 H2 2.9193e+01 1.9658e+01 3.1113e+01 HW 199 WAT_199 4.1700e-01
618 O 3.4466e+01 1.9829e+01 3.8582e+01 OW 200 WAT_200 -8.3400e-01
619 H1 3.4837e+01 1.9003e+01 3.8893e+01 HW 200 WAT_200 4.1700e-01
620 H2 3.5058e+01 2.0501e+01 3.8920e+01 HW 200 WAT_200 4.1700e-01
621 O 2.4029e+01 2.5066e+01 3.3268e+01 OW 201 WAT_201 -8.3400e-01
622 H1 2.4340e+01 2.4198e+01 3.3524e+01 HW 201 WAT_201 4.1700e-01
623 H2 2.4463e+01 2.5665e+01 3.3875e+01 HW 201 WAT_201 4.1700e-01
624 O 3.4039e+01 1.5751e+01 3.0544e+01 OW 202 WAT_202 -8.3400e-01
625 H1 3.4462e+01 1.6002e+01 2.9723e+01 HW 202 WAT_202 4.1700e-01
626 H2 3.3646e+01 1.6562e+01 3.0868e+01 HW 202 WAT_202 4.1700e-01
627 O 3.6072e+01 2.2104e+01 3.9517e+01 OW 203 WAT_203 -8.3400e-01
628 H1 3.6553e+01 2.2647e+01 4.0141e+01 HW 203 WAT_203 4.1700e-01
629 H2 3.6306e+01 2.2459e+01 3.8660e+01 HW 203 WAT_203 4.1700e-01
630 O 2.7927e+01 2.7006e+01 3.2338e+01 OW 204 WAT_204 -8.3400e-01
631 H1 2.8766e+01 2.6719e+01 3.2698e+01 HW 204 WAT_204 4.1700e-01
632 H2 2.7441e+01 2.6195e+01 3.2190e+01 HW 204 WAT_204 4.1700e-01
633 O 3.6550e+01 3.8936e+01 2.5401e+01 OW 205 WAT_205 -8.3400e-01
634 H1 3.6107e+01 3.8109e+01 2.5208e+01 HW 205 WAT_205 4.1700e-01
635 H2 3.5904e+01 3.9609e+01 2.5185e+01 HW 205 WAT_205 4.1700e-01
636 O 2.8365e+01 2.0243e+01 1.7694e+01 OW 206 WAT_206 -8.3400e-01
637 H1 2.8183e+01 2.0871e+01 1.6995e+01 HW 206 WAT_206 4.1700e-01
638 H2 2.9003e+01 2.0686e+01 1.8254e+01 HW 206 WAT_206 4.1700e-01
639 O 2.5563e+01 2.2637e+01 2.8697e+01 OW 207 WAT_207 -8.3400e-01
640 H1 2.5417e+01 2.3454e+01 2.8220e+01 HW 207 WAT_207 4.1700e-01
641 H2 2.6515e+01 2.2550e+01 2.8737e+01 HW 207 WAT_207 4.1700e-01
642 O 2.6212e+01 2.0477e+01 1.5223e+01 OW 208 WAT_208 -8.3400e-01
643 H1 2.5490e+01 1.9987e+01 1.5617e+01 HW 208 WAT_208 4.1700e-01
644 H2 2.6225e+01 2.1307e+01 1.5698e+01 HW 208 WAT_208 4.1700e-01
645 O 3.1706e+01 2.0436e+01 1.7212e+01 OW 209 WAT_209 -8.3400e-01
646 H1 3.1710e+01 1.9481e+01 1.7277e+01 HW 209 WAT_209 4.1700e-01
647 H2 3.2257e+01 2.0728e+01 1.7938e+01 HW 209 WAT_209 4.1700e-01
648 O 3.1188e+01 1.6309e+01 3.3044e+01 OW 210 WAT_210 -8.3400e-01
649 H1 3.0922e+01 1.5401e+01 3.2899e+01 HW 210 WAT_210 4.1700e-01
650 H2 3.0919e+01 1.6768e+01 3.2248e+01 HW 210 WAT_210 4.1700e-01
651 O 1.3434e+01 1.6409e+01 2.5525e+01 OW 211 WAT_211 -8.3400e-01
652 H1 1.3501e+01 1.5456e+01 2.5476e+01 HW 211 WAT_211 4.1700e-01
653 H2 1.2787e+01 1.6638e+01 2.4857e+01 HW 211 WAT_211 4.1700e-01
654 O 3.0885e+01 2.5609e+01 1.4015e+01 OW 212 WAT_212 -8.3400e-01
655 H1 3.1099e+01 2.5787e+01 1.3099e+01 HW 212 WAT_212 4.1700e-01
656 H2 3.1354e+01 2.4799e+01 1.4217e+01 HW 212 WAT_212 4.1700e-01
657 O 3.6368e+01 3.3316e+01 2.6334e+01 OW 213 WAT_213 -8.3400e-01
658 H1 3.5727e+01 3.2983e+01 2.6963e+01 HW 213 WAT_213 4.1700e-01
659 H2 3.7132e+01 3.2750e+01 2.6449e+01 HW 213 WAT_213 4.1700e-01
660 O 2.9987e+01 2.5067e+01 2.7633e+01 OW 214 WAT_214 -8.3400e-01
661 H1 3.0099e+01 2.5381e+01 2.8530e+01 HW 214 WAT_214 4.1700e-01
662 H2 2.9533e+01 2.5781e+01 2.7184e+01 HW 214 WAT_214 4.1700e-01
663 O 2.7182e+01 2.3838e+01 3.2043e+01 OW 215 WAT_215 -8.3400e-01
664 H1 2.7815e+01 2.3844e+01 3.1326e+01 HW 215 WAT_215 4.1700e-01
665 H2 2.6631e+01 2.3074e+01 3.1870e+01 HW 215 WAT_215 4.1700e-01
666 O 3.3890e+01 2.5884e+01 3.2295e+01 OW 216 WAT_216 -8.3400e-01
667 H1 3.3685e+01 2.5160e+01 3.1703e+01 HW 216 WAT_216 4.1700e-01
668 H2 3.4400e+01 2.5481e+01 3.2997e+01 HW 216 WAT_216 4.1700e-01
669 O 3.5503e+01 3.4527e+01 3.0122e+01 OW 217 WAT_217 -8.3400e-01
670 H1 3.6187e+01 3.5016e+01 3.0579e+01 HW 217 WAT_217 4.1700e-01
671 H2 3.4916e+01 3.5199e+01 2.9778e+01 HW 217 WAT_217 4.1700e-01
672 O 3.7688e+01 1.4327e+01 3.3628e+01 OW 218 WAT_218 -8.3400e-01
673 H1 3.8019e+01 1.5219e+01 3.3530e+01 HW 218 WAT_218 4.1700e-01
674 H2 3.8202e+01 1.3957e+01 3.4346e+01 HW 218 WAT_218 4.1700e-01
675 O 3.4571e+01 3.6821e+01 2.8995e+01 OW 219 WAT_219 -8.3400e-01
676 H1 3.4486e+01 3.7198e+01 2.8120e+01 HW 219 WAT_219 4.1700e-01
677 H2 3.3729e+01 3.7000e+01 2.9415e+01 HW 219 WAT_219 4.1700e-01
678 O 3.2837e+01 1.8286e+01 2.9893e+01 OW 220 WAT_220 -8.3400e-01
679 H1 3.3123e+01 1.8982e+01 3.0485e+01 HW 220 WAT_220 4.1700e-01
680 H2 3.2781e+01 1.8709e+01 2.9036e+01 HW 220 WAT_220 4.1700e-01
681 O 3.2622e+01 1.4738e+01 4.0015e+01 OW 221 WAT_221 -8.3400e-01
682 H1 3.3041e+01 1.3911e+01 3.9777e+01 HW 221 WAT_221 4.1700e-01
683 H2 3.1767e+01 1.4483e+01 4.0361e+01 HW 221 WAT_221 4.1700e-01
684 O 2.8524e+01 2.4174e+01 1.4049e+01 OW 222 WAT_222 -8.3400e-01
685 H1 2.8830e+01 2.3499e+01 1.4655e+01 HW 222 WAT_222 4.1700e-01
686 H2 2.9139e+01 2.4898e+01 1.4167e+01 HW 222 WAT_222 4.1700e-01
687 O 1.3927e+01 2.4513e+01 3.0745e+01 OW 223 WAT_223 -8.3400e-01
688 H1 1.4673e+01 2.3935e+01 3.0906e+01 HW 223 WAT_223 4.1700e-01
689 H2 1.3771e+01 2.4447e+01 2.9803e+01 HW 223 WAT_223 4.1700e-01
690 O 2.7952e+01 2.2734e+01 3.7683e+01 OW 224 WAT_224 -8.3400e-01
691 H1 2.7769e+01 2.2653e+01 3.6747e+01 HW 224 WAT_224 4.1700e-01
692 H2 2.7146e+01 2.3093e+01 3.8054e+01 HW 224 WAT_224 4.1700e-01
693 O 3.7854e+01 1.6887e+01 2.9520e+01 OW 225 WAT_225 -8.3400e-01
694 H1 3.8369e+01 1.7418e+01 2.8912e+01 HW 225 WAT_225 4.1700e-01
695 H2 3.8371e+01 1.6090e+01 2.9638e+01 HW 225 WAT_225 4.1700e-01
696 O 3.7397e+01 1.6733e+01 2.3404e+01 OW 226 WAT_226 -8.3400e-01
697 H1 3.6969e+01 1.7565e+01 2.3200e+01 HW 226 WAT_226 4.1700e-01
698 H2 3.7950e+01 1.6556e+01 2.2643e+01 HW 226 WAT_226 4.1700e-01
699 O 3.4324e+01 1.5059e+01 2.0663e+01 OW 227 WAT_227 -8.3400e-01
700 H1 3.5084e+01 1.5159e+01 2.0090e+01 HW 227 WAT_227 4.1700e-01
701 H2 3.3600e+01 1.5446e+01 2.0172e+01 HW 227 WAT_227 4.1700e-01
702 O 1.9951e+01 1.8611e+01 2.8697e+01 OW 228 WAT_228 -8.3400e-01
703 H1 2.0740e+01 1.8270e+01 2.8276e+01 HW 228 WAT_228 4.1700e-01
704 H2 2.0120e+01 1.9548e+01 2.8799e+01 HW 228 WAT_228 4.1700e-01
705 O 2.9861e+01 2.3545e+01 3.1367e+01 OW 229 WAT_229 -8.3400e-01
706 H1 2.9937e+01 2.2646e+01 3.1048e+01 HW 229 WAT_229 4.1700e-01
707 H2 2.9727e+01 2.3454e+01 3.2310e+01 HW 229 WAT_229 4.1700e-01
708 O 3.3295e+01 1.9520e+01 2.7359e+01 OW 230 WAT_230 -8.3400e-01
709 H1 3.3114e+01 1.9158e+01 2.6492e+01 HW 230 WAT_230 4.1700e-01
710 H2 3.4086e+01 2.0046e+01 2.7239e+01 HW 230 WAT_230 4.1700e-01
711 O 3.0043e+01 2.3113e+01 3.3930e+01 OW 231 WAT_231 -8.3400e-01
712 H1 3.0490e+01 2.3163e+01 3.4775e+01 HW 231 WAT_231 4.1700e-01
713 H2 2.9745e+01 2.2206e+01 3.3869e+01 HW 231 WAT_231 4.1700e-01
714 O 3.0435e+01 2.8108e+01 2.6853e+01 OW 232 WAT_232 -8.3400e-01
715 H1 3.1264e+01 2.7873e+01 2.7271e+01 HW 232 WAT_232 4.1700e-01
716 H2 3.0683e+01 2.8400e+01 2.5976e+01 HW 232 WAT_232 4.1700e-01
717 O 2.3536e+01 2.5203e+01 2.2493e+01 OW 233 WAT_233 -8.3400e-01
718 H1 2.4099e+01 2.4682e+01 2.1920e+01 HW 233 WAT_233 4.1700e-01
719 H2 2.3199e+01 2.4576e+01 2.3132e+01 HW 233 WAT_233 4.1700e-01
720 O 1.6073e+01 3.0304e+01 2.9593e+01 OW 234 WAT_234 -8.3400e-01
721 H1 1.5972e+01 3.0188e+01 3.0538e+01 HW 234 WAT_234 4.1700e-01
722 H2 1.5310e+01 3.0820e+01 2.9332e+01 HW 234 WAT_234 4.1700e-01
723 O 2.0644e+01 3.8753e+01 2.1962e+01 OW 235 WAT_235 -8.3400e-01
724 H1 2.0141e+01 3.9551e+01 2.1797e+01 HW 235 WAT_235 4.1700e-01
725 H2 2.1402e+01 3.8823e+01 2.1381e+01 HW 235 WAT_235 4.1700e-01
726 O 3.1060e+01 1.6289e+01 3.6832e+01 OW 236 WAT_236 -8.3400e-01
727 H1 3.1815e+01 1.6837e+01 3.7043e+01 HW 236 WAT_236 4.1700e-01
728 H2 3.1411e+01 1.5608e+01 3.6258e+01 HW 236 WAT_236 4.1700e-01
729 O 3.3841e+01 2.5746e+01 1.5255e+01 OW 237 WAT_237 -8.3400e-01
730 H1 3.3909e+01 2.6462e+01 1.5886e+01 HW 237 WAT_237 4.1700e-01
731 H2 3.4517e+01 2.5124e+01 1.5524e+01 HW 237 WAT_237 4.1700e-01
732 O 3.1394e+01 1.7633e+01 1.9135e+01 OW 238 WAT_238 -8.3400e-01
733 H1 3.1495e+01 1.6700e+01 1.9325e+01 HW 238 WAT_238 4.1700e-01
734 H2 3.0857e+01 1.7967e+01 1.9854e+01 HW 238 WAT_238 4.1700e-01
735 O 3.3696e+01 2.2470e+01 1.8752e+01 OW 239 WAT_239 -8.3400e-01
736 H1 3.3746e+01 2.1564e+01 1.9057e+01 HW 239 WAT_239 4.1700e-01
737 H2 3.3611e+01 2.2988e+01 1.9552e+01 HW 239 WAT_239 4.1700e-01
738 O 3.7116e+01 1.3504e+01 3.8829e+01 OW 240 WAT_240 -8.3400e-01
739 H1 3.7306e+01 1.3718e+01 3.7916e+01 HW 240 WAT_240 4.1700e-01
740 H2 3.6330e+01 1.2960e+01 3.8789e+01 HW 240 WAT_240 4.1700e-01
741 O 1.3058e+01 2.4316e+01 1.6814e+01 OW 241 WAT_241 -8.3400e-01
742 H1 1.3735e+01 2.3842e+01 1.7298e+01 HW 241 WAT_241 4.1700e-01
743 H2 1.2433e+01 2.4590e+01 1.7485e+01 HW 241 WAT_241 4.1700e-01
744 O 2.6834e+01 1.5224e+01 2.2280e+01 OW 242 WAT_242 -8.3400e-01
745 H1 2.6169e+01 1.5752e+01 2.2721e+01 HW 242 WAT_242 4.1700e-01
746 H2 2.6665e+01 1.5358e+01 2.1347e+01 HW 242 WAT_242 4.1700e-01
747 O 3.4056e+01 2.7536e+01 1.9059e+01 OW 243 WAT_243 -8.3400e-01
748 H1 3.3308e+01 2.8075e+01 1.9315e+01 HW 243 WAT_243 4.1700e-01
749 H2 3.3738e+01 2.6636e+01 1.9127e+01 HW 243 WAT_243 4.1700e-01
750 O 3.8240e+01 2.1187e+01 2.6101e+01 OW 244 WAT_244 -8.3400e-01
751 H1 3.8001e+01 2.0615e+01 2.5372e+01 HW 244 WAT_244 4.1700e-01
752 H2 3.9197e+01 2.1158e+01 2.6124e+01 HW 244 WAT_244 4.1700e-01
753 O 1.9939e+01 3.8514e+01 1.8688e+01 OW 245 WAT_245 -8.3400e-01
754 H1 1.9279e+01 3.9179e+01 1.8883e+01 HW 245 WAT_245 4.1700e-01
755 H2 1.9493e+01 3.7681e+01 1.8842e+01 HW 245 WAT_245 4.1700e-01
756 O 1.5452e+01 2.1598e+01 2.6451e+01 OW 246 WAT_246 -8.3400e-01
757 H1 1.5674e+01 2.1551e+01 2.7381e+01 HW 246 WAT_246 4.1700e-01
758 H2 1.5914e+01 2.2374e+01 2.6134e+01 HW 246 WAT_246 4.1700e-01
759 O 1.5208e+01 3.8142e+01 1.5563e+01 OW 247 WAT_247 -8.3400e-01
760 H1 1.5191e+01 3.7194e+01 1.5696e+01 HW 247 WAT_247 4.1700e-01
761 H2 1.4387e+01 3.8452e+01 1.5947e+01 HW 247 WAT_247 4.1700e-01
762 O 2.8534e+01 2.1038e+01 2.1718e+01 OW 248 WAT_248 -8.3400e-01
763 H1 2.8465e+01 2.0546e+01 2.2536e+01 HW 248 WAT_248 4.1700e-01
764 H2 2.7792e+01 2.1643e+01 2.1740e+01 HW 248 WAT_248 4.1700e-01
765 O 3.5527e+01 2.8482e+01 1.6813e+01 OW 249 WAT_249 -8.3400e-01
766 H1 3.5255e+01 2.8080e+01 1.7639e+01 HW 249 WAT_249 4.1700e-01
767 H2 3.6448e+01 2.8239e+01 1.6720e+01 HW 249 WAT_249 4.1700e-01
768 O 1.4030e+01 2.4049e+01 1.9621e+01 OW 250 WAT_250 -8.3400e-01
769 H1 1.3139e+01 2.4378e+01 1.9505e+01 HW 250 WAT_250 4.1700e-01
770 H2 1.4031e+01 2.3666e+01 2.0499e+01 HW 250 WAT_250 4.1700e-01
771 O 2.6317e+01 2.2241e+01 2.2648e+01 OW 251 WAT_251 -8.3400e-01
772 H1 2.5775e+01 2.3000e+01 2.2431e+01 HW 251 WAT_251 4.1700e-01
773 H2 2.5818e+01 2.1490e+01 2.2329e+01 HW 251 WAT_251 4.1700e-01
774 O 1.4577e+01 3.7619e+01 1.8599e+01 OW 252 WAT_252 -8.3400e-01
775 H1 1.4993e+01 3.6761e+01 1.8523e+01 HW 252 WAT_252 4.1700e-01
776 H2 1.4729e+01 3.7879e+01 1.9508e+01 HW 252 WAT_252 4.1700e-01
777 O 1.8042e+01 1.4201e+01 2.1851e+01 OW 253 WAT_253 -8.3400e-01
778 H1 1.7113e+01 1.4018e+01 2.1995e+01 HW 253 WAT_253 4.1700e-01
779 H2 1.8140e+01 1.4206e+01 2.0899e+01 HW 253 WAT_253 4.1700e-01
780 O 3.5264e+01 2.3856e+01 1.6851e+01 OW 254 WAT_254 -8.3400e-01
781 H1 3.4694e+01 2.3474e+01 1.7518e+01 HW 254 WAT_254 4.1700e-01
782 H2 3.5795e+01 2.3122e+01 1.6542e+01 HW 254 WAT_254 4.1700e-01
783 O 3.6956e+01 2.1875e+01 1.6030e+01 OW 255 WAT_255 -8.3400e-01
784 H1 3.6154e+01 2.1559e+01 1.5614e+01 HW 255 WAT_255 4.1700e-01
785 H2 3.7497e+01 2.2183e+01 1.5303e+01 HW 255 WAT_255 4.1700e-01
786 O 3.0051e+01 1.8104e+01 1.2801e+01 OW 256 WAT_256 -8.3400e-01
787 H1 2.9556e+01 1.7356e+01 1.2467e+01 HW 256 WAT_256 4.1700e-01
788 H2 2.9583e+01 1.8366e+01 1.3594e+01 HW 256 WAT_256 4.1700e-01
789 O 3.4231e+01 1.5354e+01 3.6590e+01 OW 257 WAT_257 -8.3400e-01
790 H1 3.3443e+01 1.4985e+01 3.6191e+01 HW 257 WAT_257 4.1700e-01
791 H2 3.3903e+01 1.5915e+01 3.7293e+01 HW 257 WAT_257 4.1700e-01
792 O 2.0538e+01 2.2197e+01 2.1857e+01 OW 258 WAT_258 -8.3400e-01
793 H1 1.9942e+01 2.1565e+01 2.2260e+01 HW 258 WAT_258 4.1700e-01
794 H2 2.0027e+01 2.2591e+01 2.1150e+01 HW 258 WAT_258 4.1700e-01
795 O 3.0633e+01 2.1405e+01 2.4643e+01 OW 259 WAT_259 -8.3400e-01
796 H1 2.9753e+01 2.1226e+01 2.4975e+01 HW 259 WAT_259 4.1700e-01
797 H2 3.1121e+01 2.1709e+01 2.5408e+01 HW 259 WAT_259 4.1700e-01
798 O 3.2116e+01 1.9847e+01 1.4297e+01 OW 260 WAT_260 -8.3400e-01
799 H1 3.2221e+01 1.8930e+01 1.4042e+01 HW 260 WAT_260 4.1700e-01
800 H2 3.1844e+01 1.9810e+01 1.5214e+01 HW 260 WAT_260 4.1700e-01
801 O 2.0838e+01 2.5895e+01 1.9764e+01 OW 261 WAT_261 -8.3400e-01
802 H1 2.1083e+01 2.6693e+01 1.9295e+01 HW 261 WAT_261 4.1700e-01
803 H2 1.9881e+01 2.5914e+01 1.9784e+01 HW 261 WAT_261 4.1700e-01
804 O 3.4013e+01 2.3907e+01 3.5678e+01 OW 262 WAT_262 -8.3400e-01
805 H1 3.4648e+01 2.4059e+01 3.4977e+01 HW 262 WAT_262 4.1700e-01
806 H2 3.4132e+01 2.2986e+01 3.5912e+01 HW 262 WAT_262 4.1700e-01
807 O 2.6700e+01 1.8630e+01 1.9140e+01 OW 263 WAT_263 -8.3400e-01
808 H1 2.6759e+01 1.7693e+01 1.8952e+01 HW 263 WAT_263 4.1700e-01
809 H2 2.7433e+01 1.9017e+01 1.8662e+01 HW 263 WAT_263 4.1700e-01
810 O 3.1015e+01 2.1801e+01 2.9387e+01 OW 264 WAT_264 -8.3400e-01
811 H1 3.1751e+01 2.1817e+01 2.9999e+01 HW 264 WAT_264 4.1700e-01
812 H2 3.1390e+01 2.2084e+01 2.8553e+01 HW 264 WAT_264 4.1700e-01
813 O 2.6810e+01 2.3895e+01 3.4925e+01 OW 265 WAT_265 -8.3400e-01
814 H1 2.6080e+01 2.3317e+01 3.4702e+01 HW 265 WAT_265 4.1700e-01
815 H2 2.7113e+01 2.4235e+01 3.4083e+01 HW 265 WAT_265 4.1700e-01
816 O 3.3387e+01 2.0611e+01 2.2799e+01 OW 266 WAT_266 -8.3400e-01
817 H1 3.3701e+01 1.9712e+01 2.2897e+01 HW 266 WAT_266 4.1700e-01
818 H2 3.3578e+01 2.1023e+01 2.3642e+01 HW 266 WAT_266 4.1700e-01
819 O 3.7113e+01 2.6249e+01 2.1660e+01 OW 267 WAT_267 -8.3400e-01
820 H1 3.7079e+01 2.6861e+01 2.0925e+01 HW 267 WAT_267 4.1700e-01
821 H2 3.6201e+01 2.6000e+01 2.1807e+01 HW 267 WAT_267 4.1700e-01
822 O 2.1572e+01 2.5223e+01 3.7080e+01 OW 268 WAT_268 -8.3400e-01
823 H1 2.2149e+01 2.5549e+01 3.7771e+01 HW 268 WAT_268 4.1700e-01
824 H2 2.1786e+01 2.4293e+01 3.7007e+01 HW 268 WAT_268 4.1700e-01
825 O 2.9860e+01 2.1079e+01 3.6657e+01 OW 269 WAT_269 -8.3400e-01
826 H1 2.9239e+01 2.1649e+01 3.7112e+01 HW 269 WAT_269 4.1700e-01
827 H2 3.0323e+01 2.0622e+01 3.7359e+01 HW 269 WAT_269 4.1700e-01
828 O 1.9460e+01 2.8570e+01 1.6607e+01 OW 270 WAT_270 -8.3400e-01
829 H1 2.0103e+01 2.9276e+01 1.6539e+01 HW 270 WAT_270 4.1700e-01
830 H2 1.9964e+01 2.7772e+01 1.6449e+01 HW 270 WAT_270 4.1700e-01
831 O 3.4875e+01 2.0857e+01 1.4730e+01 OW 271 WAT_271 -8.3400e-01
832 H1 3.3966e+01 2.0576e+01 1.4839e+01 HW 271 WAT_271 4.1700e-01
833 H2 3.4915e+01 2.1199e+01 1.3838e+01 HW 271 WAT_271 4.1700e-01
834 O 2.8230e+01 1.5334e+01 1.4949e+01 OW 272 WAT_272 -8.3400e-01
835 H1 2.7948e+01 1.5386e+01 1.5863e+01 HW 272 WAT_272 4.1700e-01
836 H2 2.8603e+01 1.6197e+01 1.4765e+01 HW 272 WAT_272 4.1700e-01
837 O 3.1625e+01 1.9617e+01 3.8347e+01 OW 273 WAT_273 -8.3400e-01
838 H1 3.2576e+01 1.9723e+01 3.8369e+01 HW 273 WAT_273 4.1700e-01
839 H2 3.1449e+01 1.8905e+01 3.8963e+01 HW 273 WAT_273 4.1700e-01
840 O 1.6253e+01 1.6914e+01 2.2769e+01 OW 274 WAT_274 -8.3400e-01
841 H1 1.6249e+01 1.6978e+01 2.1814e+01 HW 274 WAT_274 4.1700e-01
842 H2 1.6085e+01 1.5989e+01 2.2948e+01 HW 274 WAT_274 4.1700e-01
843 O 2.1743e+01 2.2527e+01 3.7580e+01 OW 275 WAT_275 -8.3400e-01
844 H1 2.2061e+01 2.2035e+01 3.8337e+01 HW 275 WAT_275 4.1700e-01
845 H2 2.0791e+01 2.2429e+01 3.7612e+01 HW 275 WAT_275 4.1700e-01
846 O 2.7590e+01 3.0555e+01 2.3734e+01 OW 276 WAT_276 -8.3400e-01
847 H1 2.6826e+01 3.0866e+01 2.3249e+01 HW 276 WAT_276 4.1700e-01
848 H2 2.7749e+01 2.9675e+01 2.3392e+01 HW 276 WAT_276 4.1700e-01
849 O 1.9102e+01 2.2203e+01 2.5818e+01 OW 277 WAT_277 -8.3400e-01
850 H1 1.9051e+01 2.2270e+01 2.6771e+01 HW 277 WAT_277 4.1700e-01
851 H2 1.9972e+01 2.2540e+01 2.5601e+01 HW 277 WAT_277 4.1700e-01
852 O 2.7503e+01 3.7594e+01 2.3844e+01 OW 278 WAT_278 -8.3400e-01
853 H1 2.7772e+01 3.7511e+01 2.2929e+01 HW 278 WAT_278 4.1700e-01
854 H2 2.6557e+01 3.7444e+01 2.3829e+01 HW 278 WAT_278 4.1700e-01
855 O 3.6804e+01 2.1473e+01 2.0484e+01 OW 279 WAT_279 -8.3400e-01
856 H1 3.6706e+01 2.1212e+01 1.9568e+01 HW 279 WAT_279 4.1700e-01
857 H2 3.7619e+01 2.1057e+01 2.0766e+01 HW 279 WAT_279 4.1700e-01
858 O 1.4778e+01 2.2220e+01 2.2769e+01 OW 280 WAT_280 -8.3400e-01
859 H1 1.4847e+01 2.1464e+01 2.3353e+01 HW 280 WAT_280 4.1700e-01
860 H2 1.5331e+01 2.2887e+01 2.3175e+01 HW 280 WAT_280 4.1700e-01
861 O 3.5562e+01 1.5686e+01 1.8262e+01 OW 281 WAT_281 -8.3400e-01
862 H1 3.5435e+01 1.4883e+01 1.7757e+01 HW 281 WAT_281 4.1700e-01
863 H2 3.5160e+01 1.6371e+01 1.7727e+01 HW 281 WAT_281 4.1700e-01
864 O 1.3547e+01 2.0368e+01 2.1003e+01 OW 282 WAT_282 -8.3400e-01
865 H1 1.4181e+01 2.1085e+01 2.0997e+01 HW 282 WAT_282 4.1700e-01
866 H2 1.3942e+01 1.9694e+01 2.0449e+01 HW 282 WAT_282 4.1700e-01
867 O 3.5053e+01 2.3072e+01 2.1721e+01 OW 283 WAT_283 -8.3400e-01
868 H1 3.4746e+01 2.2221e+01 2.2031e+01 HW 283 WAT_283 4.1700e-01
869 H2 3.5611e+01 2.2867e+01 2.0970e+01 HW 283 WAT_283 4.1700e-01
870 O 1.7091e+01 1.9052e+01 1.4826e+01 OW 284 WAT_284 -8.3400e-01
871 H1 1.7268e+01 1.8448e+01 1.4104e+01 HW 284 WAT_284 4.1700e-01
872 H2 1.7726e+01 1.9758e+01 1.4708e+01 HW 284 WAT_284 4.1700e-01
873 O 3.4515e+01 1.5765e+01 2.3345e+01 OW 285 WAT_285 -8.3400e-01
874 H1 3.4124e+01 1.5457e+01 2.2528e+01 HW 285 WAT_285 4.1700e-01
875 H2 3.4783e+01 1.6665e+01 2.3158e+01 HW 285 WAT_285 4.1700e-01
876 O 1.4961e+01 2.6682e+01 1.7089e+01 OW 286 WAT_286 -8.3400e-01
877 H1 1.5758e+01 2.7111e+01 1.6779e+01 HW 286 WAT_286 4.1700e-01
878 H2 1.4907e+01 2.5876e+01 1.6575e+01 HW 286 WAT_286 4.1700e-01
879 O 3.4844e+01 3.5050e+01 3.6880e+01 OW 287 WAT_287 -8.3400e-01
880 H1 3.5102e+01 3.4207e+01 3.6506e+01 HW 287 WAT_287 4.1700e-01
881 H2 3.5420e+01 3.5163e+01 3.7636e+01 HW 287 WAT_287 4.1700e-01
882 O 3.8357e+01 2.2392e+01 2.8639e+01 OW 288 WAT_288 -8.3400e-01
883 H1 3.8275e+01 2.1983e+01 2.7778e+01 HW 288 WAT_288 4.1700e-01
884 H2 3.9095e+01 2.1942e+01 2.9049e+01 HW 288 WAT_288 4.1700e-01
885 O 3.5518e+01 1.8875e+01 2.2594e+01 OW 289 WAT_289 -8.3400e-01
886 H1 3.6037e+01 1.9615e+01 2.2911e+01 HW 289 WAT_289 4.1700e-01
887 H2 3.5763e+01 1.8788e+01 2.1673e+01 HW 289 WAT_289 4.1700e-01
888 O 3.3472e+01 1.9799e+01 1.9302e+01 OW 290 WAT_290 -8.3400e-01
889 H1 3.4361e+01 1.9468e+01 1.9430e+01 HW 290 WAT_290 4.1700e-01
890 H2 3.2906e+01 1.9071e+01 1.9558e+01 HW 290 WAT_290 4.1700e-01
891 O 3.7796e+01 2.3493e+01 1.3825e+01 OW 291 WAT_291 -8.3400e-01
892 H1 3.7653e+01 2.4048e+01 1.4591e+01 HW 291 WAT_291 4.1700e-01
893 H2 3.8727e+01 2.3594e+01 1.3626e+01 HW 291 WAT_291 4.1700e-01
894 O 3.1035e+01 2.9731e+01 1.5119e+01 OW 292 WAT_292 -8.3400e-01
895 H1 3.1952e+01 2.9523e+01 1.5298e+01 HW 292 WAT_292 4.1700e-01
896 H2 3.0757e+01 2.9064e+01 1.4492e+01 HW 292 WAT_292 4.1700e-01
897 O 3.0949e+01 3.7659e+01 3.5935e+01 OW 293 WAT_293 -8.3400e-01
898 H1 3.0165e+01 3.7343e+01 3.5485e+01 HW 293 WAT_293 4.1700e-01
899 H2 3.1595e+01 3.6964e+01 3.5807e+01 HW 293 WAT_293 4.1700e-01
900 O 1.5728e+01 1.3637e+01 1.7922e+01 OW 294 WAT_294 -8.3400e-01
901 H1 1.5364e+01 1.2765e+01 1.8073e+01 HW 294 WAT_294 4.1700e-01
902 H2 1.6000e+01 1.3627e+01 1.7005e+01 HW 294 WAT_294 4.1700e-01
903 O 2.7681e+01 2.5423e+01 2.0854e+01 OW 295 WAT_295 -8.3400e-01
904 H1 2.8244e+01 2.5096e+01 2.0153e+01 HW 295 WAT_295 4.1700e-01
905 H2 2.8130e+01 2.5169e+01 2.1660e+01 HW 295 WAT_295 4.1700e-01
906 O 3.1414e+01 1.7700e+01 1.6443e+01 OW 296 WAT_296 -8.3400e-01
907 H1 3.2299e+01 1.7499e+01 1.6138e+01 HW 296 WAT_296 4.1700e-01
908 H2 3.1393e+01 1.7383e+01 1.7346e+01 HW 296 WAT_296 4.1700e-01
909 O 1.3250e+01 3.7907e+01 2.7905e+01 OW 297 WAT_297 -8.3400e-01
910 H1 1.4090e+01 3.7607e+01 2.7557e+01 HW 297 WAT_297 4.1700e-01
911 H2 1.2687e+01 3.7134e+01 2.7869e+01 HW 297 WAT_297 4.1700e-01
912 O 2.7717e+01 1.9519e+01 2.4033e+01 OW 298 WAT_298 -8.3400e-01
913 H1 2.6838e+01 1.9433e+01 2.3664e+01 HW 298 WAT_298 4.1700e-01
914 H2 2.7658e+01 1.9103e+01 2.4893e+01 HW 298 WAT_298 4.1700e-01
915 O 1.3055e+01 1.7379e+01 1.7032e+01 OW 299 WAT_299 -8.3400e-01
916 H1 1.3238e+01 1.7966e+01 1.6299e+01 HW 299 WAT_299 4.1700e-01
917 H2 1.2560e+01 1.6658e+01 1.6644e+01 HW 299 WAT_299 4.1700e-01
918 O 3.3012e+01 1.3388e+01 2.9292e+01 OW 300 WAT_300 -8.3400e-01
919 H1 3.3310e+01 1.3980e+01 2.9982e+01 HW 300 WAT_300 4.1700e-01
920 H2 3.3811e+01 1.3143e+01 2.8824e+01 HW 300 WAT_300 4.1700e-01
921 O 3.1372e+01 2.4947e+01 3.5867e+01 OW 301 WAT_301 -8.3400e-01
922 H1 3.1548e+01 2.5887e+01 3.5905e+01 HW 301 WAT_301 4.1700e-01
923 H2 3.2225e+01 2.4550e+01 3.5692e+01 HW 301 WAT_301 4.1700e-01
924 O 1.3360e+01 3.3352e+01 2.1705e+01 OW 302 WAT_302 -8.3400e-01
925 H1 1.2755e+01 3.3666e+01 2.2377e+01 HW 302 WAT_302 4.1700e-01
926 H2 1.3652e+01 3.2499e+01 2.2025e+01 HW 302 WAT_302 4.1700e-01
927 O 1.6617e+01 1.6892e+01 1.9939e+01 OW 303 WAT_303 -8.3400e-01
928 H1 1.6821e+01 1.5960e+01 1.9862e+01 HW 303 WAT_303 4.1700e-01
929 H2 1.7142e+01 1.7310e+01 1.9256e+01 HW 303 WAT_303 4.1700e-01
930 O 3.1771e+01 2.2885e+01 2.6975e+01 OW 304 WAT_304 -8.3400e-01
931 H1 3.1183e+01 2.3629e+01 2.6849e+01 HW 304 WAT_304 4.1700e-01
932 H2 3.2600e+01 2.3279e+01 2.7247e+01 HW 304 WAT_304 4.1700e-01
933 O 3.2300e+01 2.3071e+01 1.3569e+01 OW 305 WAT_305 -8.3400e-01
934 H1 3.1590e+01 2.2472e+01 1.3338e+01 HW 305 WAT_305 4.1700e-01
935 H2 3.2604e+01 2.2764e+01 1.4423e+01 HW 305 WAT_305 4.1700e-01
936 O 2.9190e+01 1.8356e+01 1.5207e+01 OW 306 WAT_306 -8.3400e-01
937 H1 2.8684e+01 1.8992e+01 1.5713e+01 HW 306 WAT_306 4.1700e-01
938 H2 2.9965e+01 1.8185e+01 1.5743e+01 HW 306 WAT_306 4.1700e-01
939 O 3.7357e+01 2.0006e+01 1.8175e+01 OW 307 WAT_307 -8.3400e-01
940 H1 3.8284e+01 1.9877e+01 1.8377e+01 HW 307 WAT_307 4.1700e-01
941 H2 3.7346e+01 2.0266e+01 1.7254e+01 HW 307 WAT_307 4.1700e-01
942 O 1.6702e+01 2.4648e+01 1.9100e+01 OW 308 WAT_308 -8.3400e-01
943 H1 1.5834e+01 2.4401e+01 1.9419e+01 HW 308 WAT_308 4.1700e-01
944 H2 1.7295e+01 2.4012e+01 1.9500e+01 HW 308 WAT_308 4.1700e-01
945 O 2.9880e+01 3.1705e+01 3.0269e+01 OW 309 WAT_309 -8.3400e-01
946 H1 3.0035e+01 3.0868e+01 3.0707e+01 HW 309 WAT_309 4.1700e-01
947 H2 2.9824e+01 3.1483e+01 2.9340e+01 HW 309 WAT_309 4.1700e-01
948 O 2.0086e+01 3.4469e+01 2.8428e+01 OW 310 WAT_310 -8.3400e-01
949 H1 2.0404e+01 3.4001e+01 2.9200e+01 HW 310 WAT_310 4.1700e-01
950 H2 2.0880e+01 3.4774e+01 2.7989e+01 HW 310 WAT_310 4.1700e-01
951 O 3.1865e+01 3.2555e+01 3.5700e+01 OW 311 WAT_311 -8.3400e-01
952 H1 3.1230e+01 3.2949e+01 3.5101e+01 HW 311 WAT_311 4.1700e-01
953 H2 3.2293e+01 3.1874e+01 3.5180e+01 HW 311 WAT_311 4.1700e-01
954 O 1.5204e+01 3.7188e+01 3.2444e+01 OW 312 WAT_312 -8.3400e-01
955 H1 1.5416e+01 3.7831e+01 3.3120e+01 HW 312 WAT_312 4.1700e-01
956 H2 1.4896e+01 3.7711e+01 3.1704e+01 HW 312 WAT_312 4.1700e-01
957 O 1.3396e+01 3.0961e+01 1.8359e+01 OW 313 WAT_313 -8.3400e-01
958 H1 1.3870e+01 3.1068e+01 1.9183e+01 HW 313 WAT_313 4.1700e-01
959 H2 1.4081e+01 3.0837e+01 1.7702e+01 HW 313 WAT_313 4.1700e-01
960 O 2.4844e+01 1.5294e+01 3.3249e+01 OW 314 WAT_314 -8.3400e-01
961 H1 2.5186e+01 1.5822e+01 3.3970e+01 HW 314 WAT_314 4.1700e-01
962 H2 2.5507e+01 1.5369e+01 3.2562e+01 HW 314 WAT_314 4.1700e-01
963 O 3.6776e+01 2.6575e+01 3.6093e+01 OW 315 WAT_315 -8.3400e-01
964 H1 3.7128e+01 2.5798e+01 3.5658e+01 HW 315 WAT_315 4.1700e-01
965 H2 3.7192e+01 2.7310e+01 3.5643e+01 HW 315 WAT_315 4.1700e-01
966 O 1.6575e+01 3.6548e+01 2.9867e+01 OW 316 WAT_316 -8.3400e-01
967 H1 1.5630e+01 3.6399e+01 2.9870e+01 HW 316 WAT_316 4.1700e-01
968 H2 1.6842e+01 3.6412e+01 3.0776e+01 HW 316 WAT_316 4.1700e-01
969 O 2.3179e+01 3.6239e+01 4.0022e+01 OW 317 WAT_317 -8.3400e-01
970 H1 2.2852e+01 3.5372e+01 4.0260e+01 HW 317 WAT_317 4.1700e-01
971 H2 2.2421e+01 3.6816e+01 4.0118e+01 HW 317 WAT_317 4.1700e-01
972 O 2.2944e+01 2.8718e+01 2.8171e+01 OW 318 WAT_318 -8.3400e-01
973 H1 2.3747e+01 2.9204e+01 2.8360e+01 HW 318 WAT_318 4.1700e-01
974 H2 2.3120e+01 2.8279e+01 2.7338e+01 HW 318 WAT_318 4.1700e-01
975 O 3.8799e+01 3.5120e+01 1.5347e+01 OW 319 WAT_319 -8.3400e-01
976 H1 3.8318e+01 3.5375e+01 1.6134e+01 HW 319 WAT_319 4.1700e-01
977 H2 3.8205e+01 3.4530e+01 1.4883e+01 HW 319 WAT_319 4.1700e-01
978 O 2.2158e+01 3.1593e+01 2.8031e+01 OW 320 WAT_320 -8.3400e-01
979 H1 2.1359e+01 3.1454e+01 2.7523e+01 HW 320 WAT_320 4.1700e-01
980 H2 2.2558e+01 3.0725e+01 2.8090e+01 HW 320 WAT_320 4.1700e-01
981 O 3.5726e+01 2.5225e+01 2.4307e+01 OW 321 WAT_321 -8.3400e-01
982 H1 3.6295e+01 2.5667e+01 2.4937e+01 HW 321 WAT_321 4.1700e-01
983 H2 3.6225e+01 2.4457e+01 2.4030e+01 HW 321 WAT_321 4.1700e-01
984 O 1.7256e+01 2.6978e+01 3.7313e+01 OW 322 WAT_322 -8.3400e-01
985 H1 1.7277e+01 2.6436e+01 3.6524e+01 HW 322 WAT_322 4.1700e-01
986 H2 1.8156e+01 2.6960e+01 3.7639e+01 HW 322 WAT_322 4.1700e-01
987 O 2.3120e+01 3.0239e+01 2.4781e+01 OW 323 WAT_323 -8.3400e-01
988 H1 2.3081e+01 2.9291e+01 2.4908e+01 HW 323 WAT_323 4.1700e-01
989 H2 2.2214e+01 3.0531e+01 2.4878e+01 HW 323 WAT_323 4.1700e-01
990 O 2.4469e+01 3.4961e+01 3.5083e+01 OW 324 WAT_324 -8.3400e-01
991 H1 2.3897e+01 3.4199e+01 3.4985e+01 HW 324 WAT_324 4.1700e-01
992 H2 2.4654e+01 3.5238e+01 3.4186e+01 HW 324 WAT_324 4.1700e-01
993 O 1.9858e+01 2.8475e+01 3.6404e+01 OW 325 WAT_325 -8.3400e-01
994 H1 2.0702e+01 2.8173e+01 3.6068e+01 HW 325 WAT_325 4.1700e-01
995 H2 1.9219e+01 2.7872e+01 3.6024e+01 HW 325 WAT_325 4.1700e-01
996 O 3.8251e+01 3.1283e+01 2.6636e+01 OW 326 WAT_326 -8.3400e-01
997 H1 3.7958e+01 3.0407e+01 2.6888e+01 HW 326 WAT_326 4.1700e-01
998 H2 3.9029e+01 3.1438e+01 2.7171e+01 HW 326 WAT_326 4.1700e-01
999 O 1.4001e+01 2.7914e+01 3.3320e+01 OW 327 WAT_327 -8.3400e-01
1000 H1 1.3336e+01 2.8236e+01 3.3928e+01 HW 327 WAT_327 4.1700e-01
1001 H2 1.3611e+01 2.7132e+01 3.2930e+01 HW 327 WAT_327 4.1700e-01
1002 O 3.7344e+01 3.1235e+01 3.3174e+01 OW 328 WAT_328 -8.3400e-01
1003 H1 3.6557e+01 3.1746e+01 3.2986e+01 HW 328 WAT_328 4.1700e-01
1004 H2 3.8004e+01 3.1889e+01 3.3405e+01 HW 328 WAT_328 4.1700e-01
1005 O 1.7216e+01 2.4399e+01 3.9944e+01 OW 329 WAT_329 -8.3400e-01
1006 H1 1.7675e+01 2.4615e+01 3.9132e+01 HW 329 WAT_329 4.1700e-01
1007 H2 1.7905e+01 2.4096e+01 4.0535e+01 HW 329 WAT_329 4.1700e-01
1008 O 1.3773e+01 1.3505e+01 3.5620e+01 OW 330 WAT_330 -8.3400e-01
1009 H1 1.4634e+01 1.3227e+01 3.5307e+01 HW 330 WAT_330 4.1700e-01
1010 H2 1.3918e+01 1.3757e+01 3.6531e+01 HW 330 WAT_330 4.1700e-01
1011 O 1.5591e+01 2.2664e+01 2.9220e+01 OW 331 WAT_331 -8.3400e-01
1012 H1 1.6500e+01 2.2791e+01 2.9492e+01 HW 331 WAT_331 4.1700e-01
1013 H2 1.5305e+01 2.1884e+01 2.9695e+01 HW 331 WAT_331 4.1700e-01
1014 O 1.4545e+01 3.3790e+01 3.7605e+01 OW 332 WAT_332 -8.3400e-01
1015 H1 1.4007e+01 3.4073e+01 3.6865e+01 HW 332 WAT_332 4.1700e-01
1016 H2 1.3988e+01 3.3928e+01 3.8372e+01 HW 332 WAT_332 4.1700e-01
1017 O 1.6660e+01 2.8536e+01 2.7685e+01 OW 333 WAT_333 -8.3400e-01
1018 H1 1.6564e+01 2.9223e+01 2.8344e+01 HW 333 WAT_333 4.1700e-01
1019 H2 1.5873e+01 2.8000e+01 2.7781e+01 HW 333 WAT_333 4.1700e-01
1020 O 1.7928e+01 2.4214e+01 2.9927e+01 OW 334 WAT_334 -8.3400e-01
1021 H1 1.8500e+01 2.3894e+01 3.0625e+01 HW 334 WAT_334 4.1700e-01
1022 H2 1.8528e+01 2.4557e+01 2.9264e+01 HW 334 WAT_334 4.1700e-01
1023 O 1.8212e+01 3.1900e+01 2.9823e+01 OW 335 WAT_335 -8.3400e-01
1024 H1 1.7635e+01 3.1156e+01 2.9653e+01 HW 335 WAT_335 4.1700e-01
1025 H2 1.8776e+01 3.1607e+01 3.0539e+01 HW 335 WAT_335 4.1700e-01
1026 O 2.5504e+01 3.4034e+01 1.6951e+01 OW 336 WAT_336 -8.3400e-01
1027 H1 2.6413e+01 3.4243e+01 1.6736e+01 HW 336 WAT_336 4.1700e-01
1028 H2 2.5050e+01 3.4875e+01 1.6915e+01 HW 336 WAT_336 4.1700e-01
1029 O 2.6250e+01 3.8975e+01 3.4819e+01 OW 337 WAT_337 -8.3400e-01
1030 H1 2.6795e+01 3.8190e+01 3.4763e+01 HW 337 WAT_337 4.1700e-01
1031 H2 2.5918e+01 3.9100e+01 3.3930e+01 HW 337 WAT_337 4.1700e-01
1032 O 1.4173e+01 3.2281e+01 2.8757e+01 OW 338 WAT_338 -8.3400e-01
1033 H1 1.3804e+01 3.1887e+01 2.9547e+01 HW 338 WAT_338 4.1700e-01
1034 H2 1.4307e+01 3.3200e+01 2.8988e+01 HW 338 WAT_338 4.1700e-01
1035 O 3.5873e+01 2.8683e+01 1.3089e+01 OW 339 WAT_339 -8.3400e-01
1036 H1 3.6169e+01 2.7844e+01 1.3443e+01 HW 339 WAT_339 4.1700e-01
1037 H2 3.6596e+01 2.9285e+01 1.3264e+01 HW 339 WAT_339 4.1700e-01
1038 O 2.0687e+01 3.5372e+01 3.5576e+01 OW 340 WAT_340 -8.3400e-01
1039 H1 2.1451e+01 3.5431e+01 3.6150e+01 HW 340 WAT_340 4.1700e-01
1040 H2 2.0782e+01 3.6110e+01 3.4974e+01 HW 340 WAT_340 4.1700e-01
1041 O 2.6332e+01 3.2384e+01 3.6817e+01 OW 341 WAT_341 -8.3400e-01
1042 H1 2.5950e+01 3.1547e+01 3.6556e+01 HW 341 WAT_341 4.1700e-01
1043 H2 2.7277e+01 3.2250e+01 3.6746e+01 HW 341 WAT_341 4.1700e-01
1044 O 2.7798e+01 3.4314e+01 3.4390e+01 OW 342 WAT_342 -8.3400e-01
1045 H1 2.7439e+01 3.3471e+01 3.4665e+01 HW 342 WAT_342 4.1700e-01
1046 H2 2.7880e+01 3.4241e+01 3.3440e+01 HW 342 WAT_342 4.1700e-01
1047 O 2.8029e+01 3.8257e+01 2.7256e+01 OW 343 WAT_343 -8.3400e-01
1048 H1 2.7321e+01 3.7648e+01 2.7469e+01 HW 343 WAT_343 4.1700e-01
1049 H2 2.8666e+01 3.7725e+01 2.6779e+01 HW 343 WAT_343 4.1700e-01
1050 O 1.7896e+01 3.4779e+01 3.4642e+01 OW 344 WAT_344 -8.3400e-01
1051 H1 1.8535e+01 3.4730e+01 3.5353e+01 HW 344 WAT_344 4.1700e-01
1052 H2 1.8420e+01 3.4709e+01 3.3843e+01 HW 344 WAT_344 4.1700e-01
1053 O 2.2917e+01 3.2749e+01 3.4928e+01 OW 345 WAT_345 -8.3400e-01
1054 H1 2.2976e+01 3.1889e+01 3.4511e+01 HW 345 WAT_345 4.1700e-01
1055 H2 2.2071e+01 3.2740e+01 3.5376e+01 HW 345 WAT_345 4.1700e-01
1056 O 2.5117e+01 3.6457e+01 2.3689e+01 OW 346 WAT_346 -8.3400e-01
1057 H1 2.4560e+01 3.6323e+01 2.4456e+01 HW 346 WAT_346 4.1700e-01
1058 H2 2.4544e+01 3.6284e+01 2.2943e+01 HW 346 WAT_346 4.1700e-01
1059 O 3.0820e+01 2.9511e+01 3.1686e+01 OW 347 WAT_347 -8.3400e-01
1060 H1 3.0315e+01 2.8807e+01 3.2094e+01 HW 347 WAT_347 4.1700e-01
1061 H2 3.1585e+01 2.9072e+01 3.1314e+01 HW 347 WAT_347 4.1700e-01
1062 O 3.6527e+01 3.3428e+01 1.4116e+01 OW 348 WAT_348 -8.3400e-01
1063 H1 3.6734e+01 3.2720e+01 1.4725e+01 HW 348 WAT_348 4.1700e-01
1064 H2 3.5592e+01 3.3325e+01 1.3937e+01 HW 348 WAT_348 4.1700e-01
1065 O 3.7814e+01 3.5927e+01 3.1399e+01 OW 349 WAT_349 -8.3400e-01
1066 H1 3.7735e+01 3.6198e+01 3.2313e+01 HW 349 WAT_349 4.1700e-01
1067 H2 3.7692e+01 3.6734e+01 3.0898e+01 HW 349 WAT_349 4.1700e-01
1068 O 2.1473e+01 2.7473e+01 3.0099e+01 OW 350 WAT_350 -8.3400e-01
1069 H1 2.1823e+01 2.7572e+01 3.0984e+01 HW 350 WAT_350 4.1700e-01
1070 H2 2.2081e+01 2.7963e+01 2.9545e+01 HW 350 WAT_350 4.1700e-01
1071 O 2.2850e+01 3.3615e+01 1.4032e+01 OW 351 WAT_351 -8.3400e-01
1072 H1 2.2592e+01 3.3436e+01 1.4936e+01 HW 351 WAT_351 4.1700e-01
1073 H2 2.2214e+01 3.3134e+01 1.3502e+01 HW 351 WAT_351 4.1700e-01
1074 O 2.1157e+01 2.5779e+01 2.6498e+01 OW 352 WAT_352 -8.3400e-01
1075 H1 2.0247e+01 2.6075e+01 2.6517e+01 HW 352 WAT_352 4.1700e-01
1076 H2 2.1337e+01 2.5499e+01 2.7396e+01 HW 352 WAT_352 4.1700e-01
1077 O 2.1583e+01 1.5541e+01 3.3925e+01 OW 353 WAT_353 -8.3400e-01
1078 H1 2.2059e+01 1.5209e+01 3.4686e+01 HW 353 WAT_353 4.1700e-01
1079 H2 2.2069e+01 1.5203e+01 3.3173e+01 HW 353 WAT_353 4.1700e-01
1080 O 1.4433e+01 3.1699e+01 1.3475e+01 OW 354 WAT_354 -8.3400e-01
1081 H1 1.4276e+01 3.2635e+01 1.3356e+01 HW 354 WAT_354 4.1700e-01
1082 H2 1.5147e+01 3.1496e+01 1.2871e+01 HW 354 WAT_354 4.1700e-01
1083 O 1.6118e+01 1.2859e+01 3.4558e+01 OW 355 WAT_355 -8.3400e-01
1084 H1 1.5810e+01 1.3501e+01 3.3918e+01 HW 355 WAT_355 4.1700e-01
1085 H2 1.7051e+01 1.3045e+01 3.4654e+01 HW 355 WAT_355 4.1700e-01
1086 O 2.1992e+01 3.8581e+01 1.6713e+01 OW 356 WAT_356 -8.3400e-01
1087 H1 2.1415e+01 3.8701e+01 1.7467e+01 HW 356 WAT_356 4.1700e-01
1088 H2 2.1983e+01 3.7638e+01 1.6552e+01 HW 356 WAT_356 4.1700e-01
1089 O 2.8007e+01 2.9299e+01 3.8516e+01 OW 357 WAT_357 -8.3400e-01
1090 H1 2.8260e+01 2.8387e+01 3.8373e+01 HW 357 WAT_357 4.1700e-01
1091 H2 2.8549e+01 2.9797e+01 3.7904e+01 HW 357 WAT_357 4.1700e-01
1092 O 2.5943e+01 3.8484e+01 3.0968e+01 OW 358 WAT_358 -8.3400e-01
1093 H1 2.5117e+01 3.8131e+01 3.1297e+01 HW 358 WAT_358 4.1700e-01
1094 H2 2.5694e+01 3.9006e+01 3.0205e+01 HW 358 WAT_358 4.1700e-01
1095 O 1.8898e+01 3.3047e+01 2.6432e+01 OW 359 WAT_359 -8.3400e-01
1096 H1 1.7941e+01 3.3035e+01 2.6445e+01 HW 359 WAT_359 4.1700e-01
1097 H2 1.9143e+01 3.3507e+01 2.7235e+01 HW 359 WAT_359 4.1700e-01
1098 O 1.8957e+01 2.4161e+01 1.4913e+01 OW 360 WAT_360 -8.3400e-01
1099 H1 1.8112e+01 2.4353e+01 1.5320e+01 HW 360 WAT_360 4.1700e-01
1100 H2 1.9590e+01 2.4663e+01 1.5427e+01 HW 360 WAT_360 4.1700e-01
1101 O 2.5847e+01 3.2682e+01 1.3641e+01 OW 361 WAT_361 -8.3400e-01
1102 H1 2.5859e+01 3.3465e+01 1.3090e+01 HW 361 WAT_361 4.1700e-01
1103 H2 2.5348e+01 3.2942e+01 1.4415e+01 HW 361 WAT_361 4.1700e-01
1104 O 3.0155e+01 3.2424e+01 1.4738e+01 OW 362 WAT_362 -8.3400e-01
1105 H1 2.9366e+01 3.2234e+01 1.4230e+01 HW 362 WAT_362 4.1700e-01
1106 H2 3.0470e+01 3.1565e+01 1.5021e+01 HW 362 WAT_362 4.1700e-01
1107 O 1.8460e+01 2.6455e+01 2.7098e+01 OW 363 WAT_363 -8.3400e-01
1108 H1 1.8366e+01 2.7163e+01 2.7735e+01 HW 363 WAT_363 4.1700e-01
1109 H2 1.8262e+01 2.6863e+01 2.6256e+01 HW 363 WAT_363 4.1700e-01
1110 O 1.7866e+01 3.0244e+01 2.5201e+01 OW 364 WAT_364 -8.3400e-01
1111 H1 1.7509e+01 3.1064e+01 2.4859e+01 HW 364 WAT_364 4.1700e-01
1112 H2 1.7571e+01 3.0215e+01 2.6111e+01 HW 364 WAT_364 4.1700e-01
1113 O 1.8071e+01 3.2027e+01 3.3887e+01 OW 365 WAT_365 -8.3400e-01
1114 H1 1.7699e+01 3.2879e+01 3.4117e+01 HW 365 WAT_365 4.1700e-01
1115 H2 1.7341e+01 3.1542e+01 3.3503e+01 HW 365 WAT_365 4.1700e-01
1116 O 2.3688e+01 3.8283e+01 3.3013e+01 OW 366 WAT_366 -8.3400e-01
1117 H1 2.2864e+01 3.8042e+01 3.3436e+01 HW 366 WAT_366 4.1700e-01
1118 H2 2.3491e+01 3.9097e+01 3.2550e+01 HW 366 WAT_366 4.1700e-01
1119 O 1.3453e+01 2.7612e+01 1.3999e+01 OW 367 WAT_367 -8.3400e-01
1120 H1 1.3816e+01 2.7248e+01 1.3191e+01 HW 367 WAT_367 4.1700e-01
1121 H2 1.4039e+01 2.7299e+01 1.4687e+01 HW 367 WAT_367 4.1700e-01
1122 O 3.7976e+01 2.8815e+01 2.7675e+01 OW 368 WAT_368 -8.3400e-01
1123 H1 3.7394e+01 2.8728e+01 2.8430e+01 HW 368 WAT_368 4.1700e-01
1124 H2 3.8678e+01 2.8185e+01 2.7840e+01 HW 368 WAT_368 4.1700e-01
1125 O 2.0145e+01 3.0687e+01 3.2317e+01 OW 369 WAT_369 -8.3400e-01
1126 H1 1.9665e+01 3.1224e+01 3.2947e+01 HW 369 WAT_369 4.1700e-01
1127 H2 2.0939e+01 3.1188e+01 3.2130e+01 HW 369 WAT_369 4.1700e-01
1128 O 1.4080e+01 2.7273e+01 1.9703e+01 OW 370 WAT_370 -8.3400e-01
1129 H1 1.3160e+01 2.7462e+01 1.9519e+01 HW 370 WAT_370 4.1700e-01
1130 H2 1.4343e+01 2.6668e+01 1.9009e+01 HW 370 WAT_370 4.1700e-01
1131 O 2.2816e+01 3.3869e+01 2.6956e+01 OW 371 WAT_371 -8.3400e-01
1132 H1 2.3704e+01 3.3855e+01 2.6600e+01 HW 371 WAT_371 4.1700e-01
1133 H2 2.2669e+01 3.2976e+01 2.7268e+01 HW 371 WAT_371 4.1700e-01
1134 O 1.4404e+01 2.7034e+01 2.8591e+01 OW 372 WAT_372 -8.3400e-01
1135 H1 1.4983e+01 2.6802e+01 2.9318e+01 HW 372 WAT_372 4.1700e-01
1136 H2 1.4245e+01 2.6206e+01 2.8138e+01 HW 372 WAT_372 4.1700e-01
1137 O 1.4677e+01 1.4732e+01 1.3161e+01 OW 373 WAT_373 -8.3400e-01
1138 H1 1.5127e+01 1.5038e+01 1.2373e+01 HW 373 WAT_373 4.1700e-01
1139 H2 1.5259e+01 1.4065e+01 1.3526e+01 HW 373 WAT_373 4.1700e-01
1140 O 1.4458e+01 2.5465e+01 3.5346e+01 OW 374 WAT_374 -8.3400e-01
1141 H1 1.4985e+01 2.4982e+01 3.4709e+01 HW 374 WAT_374 4.1700e-01
1142 H2 1.4822e+01 2.6350e+01 3.5337e+01 HW 374 WAT_374 4.1700e-01
1143 O 2.3465e+01 3.6361e+01 2.1504e+01 OW 375 WAT_375 -8.3400e-01
1144 H1 2.2509e+01 3.6373e+01 2.1476e+01 HW 375 WAT_375 4.1700e-01
1145 H2 2.3728e+01 3.6164e+01 2.0605e+01 HW 375 WAT_375 4.1700e-01
1146 O 1.3228e+01 3.4198e+01 3.9958e+01 OW 376 WAT_376 -8.3400e-01
1147 H1 1.3393e+01 3.5140e+01 3.9995e+01 HW 376 WAT_376 4.1700e-01
1148 H2 1.2370e+01 3.4089e+01 4.0367e+01 HW 376 WAT_376 4.1700e-01
1149 O 2.4933e+01 3.0046e+01 3.6367e+01 OW 377 WAT_377 -8.3400e-01
1150 H1 2.5662e+01 2.9490e+01 3.6091e+01 HW 377 WAT_377 4.1700e-01
1151 H2 2.4252e+01 2.9890e+01 3.5712e+01 HW 377 WAT_377 4.1700e-01
1152 O 1.5843e+01 3.5157e+01 1.5338e+01 OW 378 WAT_378 -8.3400e-01
1153 H1 1.6072e+01 3.4602e+01 1.4593e+01 HW 378 WAT_378 4.1700e-01
1154 H2 1.4895e+01 3.5056e+01 1.5429e+01 HW 378 WAT_378 4.1700e-01
1155 O 1.5641e+01 3.4331e+01 3.2809e+01 OW 379 WAT_379 -8.3400e-01
1156 H1 1.6357e+01 3.4395e+01 3.3441e+01 HW 379 WAT_379 4.1700e-01
1157 H2 1.5375e+01 3.5238e+01 3.2657e+01 HW 379 WAT_379 4.1700e-01
1158 O 2.4131e+01 3.6198e+01 1.5717e+01 OW 380 WAT_380 -8.3400e-01
1159 H1 2.3369e+01 3.5742e+01 1.6074e+01 HW 380 WAT_380 4.1700e-01
1160 H2 2.4152e+01 3.5943e+01 1.4795e+01 HW 380 WAT_380 4.1700e-01
1161 O 1.7139e+01 3.3675e+01 3.7997e+01 OW 381 WAT_381 -8.3400e-01
1162 H1 1.6248e+01 3.3947e+01 3.7777e+01 HW 381 WAT_381 4.1700e-01
1163 H2 1.7653e+01 3.3885e+01 3.7217e+01 HW 381 WAT_381 4.1700e-01
1164 O 2.4176e+01 3.8448e+01 3.6789e+01 OW 382 WAT_382 -8.3400e-01
1165 H1 2.4841e+01 3.8734e+01 3.7415e+01 HW 382 WAT_382 4.1700e-01
1166 H2 2.4414e+01 3.8886e+01 3.5971e+01 HW 382 WAT_382 4.1700e-01
1167 O 2.4859e+01 1.7733e+01 1.3403e+01 OW 383 WAT_383 -8.3400e-01
1168 H1 2.5229e+01 1.6866e+01 1.3233e+01 HW 383 WAT_383 4.1700e-01
1169 H2 2.5453e+01 1.8338e+01 1.2957e+01 HW 383 WAT_383 4.1700e-01
1170 O 1.8411e+01 3.6009e+01 1.6056e+01 OW 384 WAT_384 -8.3400e-01
1171 H1 1.7617e+01 3.5920e+01 1.5530e+01 HW 384 WAT_384 4.1700e-01
1172 H2 1.8214e+01 3.5544e+01 1.6869e+01 HW 384 WAT_384 4.1700e-01
1173 O 3.0379e+01 2.4659e+01 2.0105e+01 OW 385 WAT_385 -8.3400e-01
1174 H1 3.1208e+01 2.5129e+01 2.0200e+01 HW 385 WAT_385 4.1700e-01
1175 H2 3.0407e+01 2.3987e+01 2.0787e+01 HW 385 WAT_385 4.1700e-01
1176 O 2.2809e+01 2.7453e+01 3.8576e+01 OW 386 WAT_386 -8.3400e-01
1177 H1 2.3234e+01 2.7061e+01 3.9338e+01 HW 386 WAT_386 4.1700e-01
1178 H2 2.1989e+01 2.7811e+01 3.8916e+01 HW 386 WAT_386 4.1700e-01
1179 O 2.0548e+01 3.5133e+01 3.8371e+01 OW 387 WAT_387 -8.3400e-01
1180 H1 2.1270e+01 3.5756e+01 3.8280e+01 HW 387 WAT_387 4.1700e-01
1181 H2 2.0375e+01 3.4835e+01 3.7478e+01 HW 387 WAT_387 4.1700e-01
1182 O 1.8913e+01 3.5973e+01 1.9097e+01 OW 388 WAT_388 -8.3400e-01
1183 H1 1.7961e+01 3.6012e+01 1.9006e+01 HW 388 WAT_388 4.1700e-01
1184 H2 1.9120e+01 3.5039e+01 1.9050e+01 HW 388 WAT_388 4.1700e-01
1185 O 2.2925e+01 3.6439e+01 2.9069e+01 OW 389 WAT_389 -8.3400e-01
1186 H1 2.2853e+01 3.6576e+01 2.8124e+01 HW 389 WAT_389 4.1700e-01
1187 H2 2.3399e+01 3.5611e+01 2.9155e+01 HW 389 WAT_389 4.1700e-01
1188 O 2.2902e+01 2.4942e+01 1.8218e+01 OW 390 WAT_390 -8.3400e-01
1189 H1 2.3653e+01 2.4912e+01 1.8810e+01 HW 390 WAT_390 4.1700e-01
1190 H2 2.2239e+01 2.5439e+01 1.8697e+01 HW 390 WAT_390 4.1700e-01
1191 O 3.3807e+01 3.7912e+01 1.5808e+01 OW 391 WAT_391 -8.3400e-01
1192 H1 3.4535e+01 3.7623e+01 1.5259e+01 HW 391 WAT_391 4.1700e-01
1193 H2 3.3043e+01 3.7874e+01 1.5233e+01 HW 391 WAT_391 4.1700e-01
1194 O 2.6069e+01 1.5145e+01 1.3021e+01 OW 392 WAT_392 -8.3400e-01
1195 H1 2.6904e+01 1.4903e+01 1.3422e+01 HW 392 WAT_392 4.1700e-01
1196 H2 2.5437e+01 1.4533e+01 1.3397e+01 HW 392 WAT_392 4.1700e-01
1197 O 1.3680e+01 1.3794e+01 2.1425e+01 OW 393 WAT_393 -8.3400e-01
1198 H1 1.3670e+01 1.4130e+01 2.0529e+01 HW 393 WAT_393 4.1700e-01
1199 H2 1.2759e+01 1.3785e+01 2.1687e+01 HW 393 WAT_393 4.1700e-01
1200 O 1.6558e+01 3.2497e+01 2.3811e+01 OW 394 WAT_394 -8.3400e-01
1201 H1 1.6795e+01 3.3154e+01 2.3157e+01 HW 394 WAT_394 4.1700e-01
1202 H2 1.6412e+01 3.2999e+01 2.4613e+01 HW 394 WAT_394 4.1700e-01
1203 O 1.7458e+01 3.2297e+01 1.6698e+01 OW 395 WAT_395 -8.3400e-01
1204 H1 1.6767e+01 3.1714e+01 1.6385e+01 HW 395 WAT_395 4.1700e-01
1205 H2 1.8177e+01 3.2170e+01 1.6079e+01 HW 395 WAT_395 4.1700e-01
1206 O 2.5057e+01 3.2294e+01 2.4690e+01 OW 396 WAT_396 -8.3400e-01
1207 H1 2.5173e+01 3.2278e+01 2.3740e+01 HW 396 WAT_396 4.1700e-01
1208 H2 2.4484e+01 3.1550e+01 2.4874e+01 HW 396 WAT_396 4.1700e-01
1209 O 2.4477e+01 2.6314e+01 1.2948e+01 OW 397 WAT_397 -8.3400e-01
1210 H1 2.5014e+01 2.7021e+01 1.3306e+01 HW 397 WAT_397 4.1700e-01
1211 H2 2.5049e+01 2.5546e+01 1.2966e+01 HW 397 WAT_397 4.1700e-01
1212 O 1.8304e+01 3.4453e+01 2.2586e+01 OW 398 WAT_398 -8.3400e-01
1213 H1 1.8861e+01 3.4990e+01 2.3151e+01 HW 398 WAT_398 4.1700e-01
1214 H2 1.8903e+01 3.3822e+01 2.2188e+01 HW 398 WAT_398 4.1700e-01
1215 O 2.1350e+01 2.3596e+01 2.4756e+01 OW 399 WAT_399 -8.3400e-01
1216 H1 2.0721e+01 2.3759e+01 2.4054e+01 HW 399 WAT_399 4.1700e-01
1217 H2 2.1552e+01 2.4464e+01 2.5103e+01 HW 399 WAT_399 4.1700e-01
1218 O 1.6195e+01 3.2836e+01 2.6805e+01 OW 400 WAT_400 -8.3400e-01
1219 H1 1.6192e+01 3.3729e+01 2.7151e+01 HW 400 WAT_400 4.1700e-01
1220 H2 1.5564e+01 3.2366e+01 2.7350e+01 HW 400 WAT_400 4.1700e-01
1221 O 3.6598e+01 2.8148e+01 1.9808e+01 OW 401 WAT_401 -8.3400e-01
1222 H1 3.6591e+01 2.8977e+01 2.0287e+01 HW 401 WAT_401 4.1700e-01
1223 H2 3.5675e+01 2.7903e+01 1.9740e+01 HW 401 WAT_401 4.1700e-01
1224 O 1.7263e+01 3.9093e+01 2.9718e+01 OW 402 WAT_402 -8.3400e-01
1225 H1 1.7275e+01 3.8185e+01 2.9417e+01 HW 402 WAT_402 4.1700e-01
1226 H2 1.6334e+01 3.9323e+01 2.9749e+01 HW 402 WAT_402 4.1700e-01
1227 O 1.7908e+01 2.5497e+01 3.5205e+01 OW 403 WAT_403 -8.3400e-01
1228 H1 1.7311e+01 2.5365e+01 3.4469e+01 HW 403 WAT_403 4.1700e-01
1229 H2 1.8758e+01 2.5666e+01 3.4798e+01 HW 403 WAT_403 4.1700e-01
1230 O 3.0087e+01 3.1503e+01 2.5058e+01 OW 404 WAT_404 -8.3400e-01
1231 H1 3.0526e+01 3.2330e+01 2.4858e+01 HW 404 WAT_404 4.1700e-01
1232 H2 2.9289e+01 3.1521e+01 2.4529e+01 HW 404 WAT_404 4.1700e-01
1233 O 1.4310e+01 3.4797e+01 3.0213e+01 OW 405 WAT_405 -8.3400e-01
1234 H1 1.3414e+01 3.5089e+01 3.0382e+01 HW 405 WAT_405 4.1700e-01
1235 H2 1.4641e+01 3.4532e+01 3.1072e+01 HW 405 WAT_405 4.1700e-01
1236 O 2.5878e+01 2.5761e+01 1.8351e+01 OW 406 WAT_406 -8.3400e-01
1237 H1 2.6685e+01 2.5248e+01 1.8368e+01 HW 406 WAT_406 4.1700e-01
1238 H2 2.6154e+01 2.6651e+01 1.8569e+01 HW 406 WAT_406 4.1700e-01
1239 O 3.1699e+01 1.4985e+01 1.9004e+01 OW 407 WAT_407 -8.3400e-01
1240 H1 3.1433e+01 1.4384e+01 1.9700e+01 HW 407 WAT_407 4.1700e-01
1241 H2 3.2216e+01 1.4444e+01 1.8406e+01 HW 407 WAT_407 4.1700e-01
1242 O 1.6683e+01 3.2597e+01 1.9586e+01 OW 408 WAT_408 -8.3400e-01
1243 H1 1.6935e+01 3.2508e+01 1.8667e+01 HW 408 WAT_408 4.1700e-01
1244 H2 1.6672e+01 3.1700e+01 1.9920e+01 HW 408 WAT_408 4.1700e-01
1245 O 2.7217e+01 3.4965e+01 2.2514e+01 OW 409 WAT_409 -8.3400e-01
1246 H1 2.6501e+01 3.5481e+01 2.2884e+01 HW 409 WAT_409 4.1700e-01
1247 H2 2.7782e+01 3.4769e+01 2.3261e+01 HW 409 WAT_409 4.1700e-01
1248 O 1.6348e+01 2.6597e+01 3.0538e+01 OW 410 WAT_410 -8.3400e-01
1249 H1 1.6849e+01 2.5810e+01 3.0326e+01 HW 410 WAT_410 4.1700e-01
1250 H2 1.7000e+01 2.7298e+01 3.0560e+01 HW 410 WAT_410 4.1700e-01
1251 O 1.6622e+01 2.8439e+01 1.5881e+01 OW 411 WAT_411 -8.3400e-01
1252 H1 1.7525e+01 2.8662e+01 1.6107e+01 HW 411 WAT_411 4.1700e-01
1253 H2 1.6698e+01 2.7907e+01 1.5089e+01 HW 411 WAT_411 4.1700e-01
1254 O 1.7766e+01 1.4363e+01 3.1909e+01 OW 412 WAT_412 -8.3400e-01
1255 H1 1.7718e+01 1.3810e+01 3.1130e+01 HW 412 WAT_412 4.1700e-01
1256 H2 1.7435e+01 1.5213e+01 3.1621e+01 HW 412 WAT_412 4.1700e-01
1257 O 1.6336e+01 2.4323e+01 2.6928e+01 OW 413 WAT_413 -8.3400e-01
1258 H1 1.6816e+01 2.5149e+01 2.6972e+01 HW 413 WAT_413 4.1700e-01
1259 H2 1.6351e+01 2.3989e+01 2.7826e+01 HW 413 WAT_413 4.1700e-01
1260 O 2.1264e+01 2.6581e+01 1.6325e+01 OW 414 WAT_414 -8.3400e-01
1261 H1 2.1984e+01 2.7211e+01 1.6280e+01 HW 414 WAT_414 4.1700e-01
1262 H2 2.1670e+01 2.5776e+01 1.6645e+01 HW 414 WAT_414 4.1700e-01
1263 O 1.9774e+01 2.5472e+01 2.2794e+01 OW 415 WAT_415 -8.3400e-01
1264 H1 2.0034e+01 2.6127e+01 2.3442e+01 HW 415 WAT_415 4.1700e-01
1265 H2 2.0208e+01 2.5749e+01 2.1987e+01 HW 415 WAT_415 4.1700e-01
1266 O 3.8024e+01 1.3260e+01 1.3976e+01 OW 416 WAT_416 -8.3400e-01
1267 H1 3.8865e+01 1.3664e+01 1.3761e+01 HW 416 WAT_416 4.1700e-01
1268 H2 3.7530e+01 1.3283e+01 1.3157e+01 HW 416 WAT_416 4.1700e-01
1269 O 2.1876e+01 3.0306e+01 1.5923e+01 OW 417 WAT_417 -8.3400e-01
1270 H1 2.2806e+01 3.0293e+01 1.6148e+01 HW 417 WAT_417 4.1700e-01
1271 H2 2.1854e+01 3.0136e+01 1.4981e+01 HW 417 WAT_417 4.1700e-01
1272 O 2.2224e+01 3.4428e+01 3.2261e+01 OW 418 WAT_418 -8.3400e-01
1273 H1 2.2206e+01 3.3609e+01 3.1766e+01 HW 418 WAT_418 4.1700e-01
1274 H2 2.2019e+01 3.4169e+01 3.3160e+01 HW 418 WAT_418 4.1700e-01
1275 O 2.5639e+01 3.4467e+01 2.6508e+01 OW 419 WAT_419 -8.3400e-01
1276 H1 2.5433e+01 3.3966e+01 2.5719e+01 HW 419 WAT_419 4.1700e-01
1277 H2 2.6522e+01 3.4185e+01 2.6748e+01 HW 419 WAT_419 4.1700e-01
1278 O 1.8410e+01 3.9215e+01 1.6163e+01 OW 420 WAT_420 -8.3400e-01
1279 H1 1.8875e+01 3.8552e+01 1.6673e+01 HW 420 WAT_420 4.1700e-01
1280 H2 1.7641e+01 3.8758e+01 1.5821e+01 HW 420 WAT_420 4.1700e-01
1281 O 2.3018e+01 3.6113e+01 3.6930e+01 OW 421 WAT_421 -8.3400e-01
1282 H1 2.3498e+01 3.5760e+01 3.6182e+01 HW 421 WAT_421 4.1700e-01
1283 H2 2.3404e+01 3.6977e+01 3.7078e+01 HW 421 WAT_421 4.1700e-01
1284 O 1.6220e+01 3.5123e+01 2.1174e+01 OW 422 WAT_422 -8.3400e-01
1285 H1 1.6105e+01 3.4352e+01 2.0618e+01 HW 422 WAT_422 4.1700e-01
1286 H2 1.6996e+01 3.4926e+01 2.1698e+01 HW 422 WAT_422 4.1700e-01
1287 O 1.5913e+01 3.5134e+01 1.8183e+01 OW 423 WAT_423 -8.3400e-01
1288 H1 1.5770e+01 3.5105e+01 1.7237e+01 HW 423 WAT_423 4.1700e-01
1289 H2 1.5502e+01 3.4335e+01 1.8513e+01 HW 423 WAT_423 4.1700e-01
1290 O 2.7920e+01 3.5288e+01 1.4442e+01 OW 424 WAT_424 -8.3400e-01
1291 H1 2.8517e+01 3.5369e+01 1.3698e+01 HW 424 WAT_424 4.1700e-01
1292 H2 2.7054e+01 3.5202e+01 1.4045e+01 HW 424 WAT_424 4.1700e-01
1293 O 1.5037e+01 3.0719e+01 1.6189e+01 OW 425 WAT_425 -8.3400e-01
1294 H1 1.5553e+01 2.9918e+01 1.6093e+01 HW 425 WAT_425 4.1700e-01
1295 H2 1.4818e+01 3.0971e+01 1.5292e+01 HW 425 WAT_425 4.1700e-01
1296 O 2.2816e+01 3.7324e+01 2.5811e+01 OW 426 WAT_426 -8.3400e-01
1297 H1 2.3350e+01 3.8109e+01 2.5693e+01 HW 426 WAT_426 4.1700e-01
1298 H2 2.1917e+01 3.7650e+01 2.5853e+01 HW 426 WAT_426 4.1700e-01
1299 O 2.2721e+01 3.0167e+01 3.4178e+01 OW 427 WAT_427 -8.3400e-01
1300 H1 2.2873e+01 2.9640e+01 3.4963e+01 HW 427 WAT_427 4.1700e-01
1301 H2 2.2348e+01 2.9554e+01 3.3545e+01 HW 427 WAT_427 4.1700e-01
1302 O 2.4553e+01 3.0504e+01 3.8825e+01 OW 428 WAT_428 -8.3400e-01
1303 H1 2.4513e+01 3.0179e+01 3.7926e+01 HW 428 WAT_428 4.1700e-01
1304 H2 2.4802e+01 3.1424e+01 3.8737e+01 HW 428 WAT_428 4.1700e-01
1305 O 2.2928e+01 3.4495e+01 2.3982e+01 OW 429 WAT_429 -8.3400e-01
1306 H1 2.3809e+01 3.4167e+01 2.4161e+01 HW 429 WAT_429 4.1700e-01
1307 H2 2.2404e+01 3.4189e+01 2.4723e+01 HW 429 WAT_429 4.1700e-01
1308 O 2.6069e+01 2.4985e+01 1.5283e+01 OW 430 WAT_430 -8.3400e-01
1309 H1 2.5843e+01 2.4244e+01 1.5845e+01 HW 430 WAT_430 4.1700e-01
1310 H2 2.7008e+01 2.4892e+01 1.5128e+01 HW 430 WAT_430 4.1700e-01
1311 O 3.5459e+01 2.0594e+01 2.6390e+01 OW 431 WAT_431 -8.3400e-01
1312 H1 3.6351e+01 2.0931e+01 2.6315e+01 HW 431 WAT_431 4.1700e-01
1313 H2 3.5011e+01 2.0925e+01 2.5611e+01 HW 431 WAT_431 4.1700e-01
1314 O 2.1657e+01 3.3338e+01 2.1864e+01 OW 432 WAT_432 -8.3400e-01
1315 H1 2.1782e+01 3.3766e+01 2.2712e+01 HW 432 WAT_432 4.1700e-01
1316 H2 2.1886e+01 3.4009e+01 2.1221e+01 HW 432 WAT_432 4.1700e-01
1317 O 1.8950e+01 1.6187e+01 2.3337e+01 OW 433 WAT_433 -8.3400e-01
1318 H1 1.8667e+01 1.5363e+01 2.2940e+01 HW 433 WAT_433 4.1700e-01
1319 H2 1.8167e+01 1.6738e+01 2.3330e+01 HW 433 WAT_433 4.1700e-01
1320 O 2.0962e+01 3.2818e+01 1.6191e+01 OW 434 WAT_434 -8.3400e-01
1321 H1 2.1104e+01 3.1872e+01 1.6167e+01 HW 434 WAT_434 4.1700e-01
1322 H2 2.0439e+01 3.2962e+01 1.6980e+01 HW 434 WAT_434 4.1700e-01
1323 O 1.7807e+01 3.7808e+01 2.4040e+01 OW 435 WAT_435 -8.3400e-01
1324 H1 1.7814e+01 3.7363e+01 2.4888e+01 HW 435 WAT_435 4.1700e-01
1325 H2 1.8732e+01 3.7902e+01 2.3811e+01 HW 435 WAT_435 4.1700e-01
1326 O 1.9506e+01 1.6918e+01 3.0801e+01 OW 436 WAT_436 -8.3400e-01
1327 H1 1.9795e+01 1.7547e+01 3.0140e+01 HW 436 WAT_436 4.1700e-01
1328 H2 2.0095e+01 1.6171e+01 3.0695e+01 HW 436 WAT_436 4.1700e-01
1329 O 1.8419e+01 2.6969e+01 1.8885e+01 OW 437 WAT_437 -8.3400e-01
1330 H1 1.8633e+01 2.7786e+01 1.8433e+01 HW 437 WAT_437 4.1700e-01
1331 H2 1.7681e+01 2.6610e+01 1.8392e+01 HW 437 WAT_437 4.1700e-01
1332 O 2.4068e+01 2.7254e+01 1.6538e+01 OW 438 WAT_438 -8.3400e-01
1333 H1 2.4510e+01 2.7696e+01 1.5813e+01 HW 438 WAT_438 4.1700e-01
1334 H2 2.4735e+01 2.6676e+01 1.6908e+01 HW 438 WAT_438 4.1700e-01
1335 O 1.4941e+01 2.7709e+01 3.8751e+01 OW 439 WAT_439 -8.3400e-01
1336 H1 1.5630e+01 2.7337e+01 3.8201e+01 HW 439 WAT_439 4.1700e-01
1337 H2 1.4592e+01 2.8438e+01 3.8238e+01 HW 439 WAT_439 4.1700e-01
1338 O 2.2756e+01 3.0681e+01 1.9525e+01 OW 440 WAT_440 -8.3400e-01
1339 H1 2.2352e+01 3.0741e+01 2.0391e+01 HW 440 WAT_440 4.1700e-01
1340 H2 2.2928e+01 2.9747e+01 1.9405e+01 HW 440 WAT_440 4.1700e-01
1341 O 2.4480e+01 1.6598e+01 2.3722e+01 OW 441 WAT_441 -8.3400e-01
1342 H1 2.4601e+01 1.6689e+01 2.4667e+01 HW 441 WAT_441 4.1700e-01
1343 H2 2.3885e+01 1.5854e+01 2.3626e+01 HW 441 WAT_441 4.1700e-01
1344 O 1.8291e+01 3.4263e+01 3.1242e+01 OW 442 WAT_442 -8.3400e-01
1345 H1 1.8409e+01 3.3631e+01 3.0533e+01 HW 442 WAT_442 4.1700e-01
1346 H2 1.7374e+01 3.4166e+01 3.1500e+01 HW 442 WAT_442 4.1700e-01
1347 O 1.8670e+01 2.9122e+01 1.2965e+01 OW 443 WAT_443 -8.3400e-01
1348 H1 1.9480e+01 2.8612e+01 1.2991e+01 HW 443 WAT_443 4.1700e-01
1349 H2 1.7974e+01 2.8465e+01 1.2964e+01 HW 443 WAT_443 4.1700e-01
1350 O 2.2937e+01 2.7608e+01 2.5652e+01 OW 444 WAT_444 -8.3400e-01
1351 H1 2.3493e+01 2.7041e+01 2.5117e+01 HW 444 WAT_444 4.1700e-01
1352 H2 2.2303e+01 2.7013e+01 2.6052e+01 HW 444 WAT_444 4.1700e-01
1353 O 2.1265e+01 3.2283e+01 3.9411e+01 OW 445 WAT_445 -8.3400e-01
1354 H1 2.0808e+01 3.1690e+01 3.8814e+01 HW 445 WAT_445 4.1700e-01
1355 H2 2.1191e+01 3.3143e+01 3.8998e+01 HW 445 WAT_445 4.1700e-01
1356 O 1.8662e+01 1.9601e+01 2.1495e+01 OW 446 WAT_446 -8.3400e-01
1357 H1 1.8077e+01 1.9980e+01 2.0839e+01 HW 446 WAT_446 4.1700e-01
1358 H2 1.8522e+01 2.0134e+01 2.2277e+01 HW 446 WAT_446 4.1700e-01
1359 O 3.0503e+01 1.3388e+01 2.0671e+01 OW 447 WAT_447 -8.3400e-01
1360 H1 2.9913e+01 1.3390e+01 1.9917e+01 HW 447 WAT_447 4.1700e-01
1361 H2 3.0728e+01 1.2466e+01 2.0797e+01 HW 447 WAT_447 4.1700e-01
1362 O 2.0604e+01 3.1315e+01 2.5090e+01 OW 448 WAT_448 -8.3400e-01
1363 H1 2.0084e+01 3.2070e+01 2.5365e+01 HW 448 WAT_448 4.1700e-01
1364 H2 2.0024e+01 3.0565e+01 2.5219e+01 HW 448 WAT_448 4.1700e-01
1365 O 2.5392e+01 3.9011e+01 1.9296e+01 OW 449 WAT_449 -8.3400e-01
1366 H1 2.5379e+01 3.8802e+01 1.8362e+01 HW 449 WAT_449 4.1700e-01
1367 H2 2.6201e+01 3.8612e+01 1.9620e+01 HW 449 WAT_449 4.1700e-01
1368 O 1.8826e+01 3.0509e+01 3.8002e+01 OW 450 WAT_450 -8.3400e-01
1369 H1 1.9164e+01 2.9880e+01 3.7366e+01 HW 450 WAT_450 4.1700e-01
1370 H2 1.8763e+01 3.0014e+01 3.8819e+01 HW 450 WAT_450 4.1700e-01
1371 O 1.8834e+01 3.1809e+01 1.4083e+01 OW 451 WAT_451 -8.3400e-01
1372 H1 1.8655e+01 3.0898e+01 1.3850e+01 HW 451 WAT_451 4.1700e-01
1373 H2 1.9697e+01 3.1987e+01 1.3709e+01 HW 451 WAT_451 4.1700e-01
1374 O 3.7544e+01 2.6875e+01 2.5458e+01 OW 452 WAT_452 -8.3400e-01
1375 H1 3.7931e+01 2.7256e+01 2.4670e+01 HW 452 WAT_452 4.1700e-01
1376 H2 3.7749e+01 2.7502e+01 2.6152e+01 HW 452 WAT_452 4.1700e-01
1377 O 2.2083e+01 2.9843e+01 1.3173e+01 OW 453 WAT_453 -8.3400e-01
1378 H1 2.3007e+01 2.9714e+01 1.2960e+01 HW 453 WAT_453 4.1700e-01
1379 H2 2.1896e+01 3.0740e+01 1.2895e+01 HW 453 WAT_453 4.1700e-01
1380 O 2.2361e+01 3.2192e+01 3.0896e+01 OW 454 WAT_454 -8.3400e-01
1381 H1 2.3236e+01 3.1936e+01 3.1188e+01 HW 454 WAT_454 4.1700e-01
1382 H2 2.2327e+01 3.1924e+01 2.9978e+01 HW 454 WAT_454 4.1700e-01
1383 O 2.3196e+01 3.3306e+01 1.8895e+01 OW 455 WAT_455 -8.3400e-01
1384 H1 2.4043e+01 3.3434e+01 1.8467e+01 HW 455 WAT_455 4.1700e-01
1385 H2 2.3243e+01 3.2421e+01 1.9257e+01 HW 455 WAT_455 4.1700e-01
1386 O 1.8288e+01 2.7542e+01 2.4337e+01 OW 456 WAT_456 -8.3400e-01
1387 H1 1.8352e+01 2.7343e+01 2.3402e+01 HW 456 WAT_456 4.1700e-01
1388 H2 1.8060e+01 2.8471e+01 2.4369e+01 HW 456 WAT_456 4.1700e-01
1389 O 2.5944e+01 2.8623e+01 1.3332e+01 OW 457 WAT_457 -8.3400e-01
1390 H1 2.6769e+01 2.8640e+01 1.2847e+01 HW 457 WAT_457 4.1700e-01
1391 H2 2.5312e+01 2.9037e+01 1.2744e+01 HW 457 WAT_457 4.1700e-01
1392 O 3.4868e+01 1.7786e+01 1.6736e+01 OW 458 WAT_458 -8.3400e-01
1393 H1 3.4592e+01 1.7497e+01 1.5866e+01 HW 458 WAT_458 4.1700e-01
1394 H2 3.5646e+01 1.8320e+01 1.6576e+01 HW 458 WAT_458 4.1700e-01
1395 O 2.0347e+01 2.1547e+01 2.8896e+01 OW 459 WAT_459 -8.3400e-01
1396 H1 2.0315e+01 2.1800e+01 2.9818e+01 HW 459 WAT_459 4.1700e-01
1397 H2 2.1281e+01 2.1508e+01 2.8690e+01 HW 459 WAT_459 4.1700e-01
1398 O 2.1074e+01 3.8604e+01 1.4080e+01 OW 460 WAT_460 -8.3400e-01
1399 H1 2.0773e+01 3.7727e+01 1.3841e+01 HW 460 WAT_460 4.1700e-01
1400 H2 2.1148e+01 3.8580e+01 1.5034e+01 HW 460 WAT_460 4.1700e-01
1401 O 1.9032e+01 2.8456e+01 3.0813e+01 OW 461 WAT_461 -8.3400e-01
1402 H1 1.9852e+01 2.8191e+01 3.0396e+01 HW 461 WAT_461 4.1700e-01
1403 H2 1.9303e+01 2.8874e+01 3.1630e+01 HW 461 WAT_461 4.1700e-01
1404 O 1.8054e+01 2.1562e+01 2.3405e+01 OW 462 WAT_462 -8.3400e-01
1405 H1 1.7825e+01 2.2383e+01 2.2970e+01 HW 462 WAT_462 4.1700e-01
1406 H2 1.8311e+01 2.1823e+01 2.4290e+01 HW 462 WAT_462 4.1700e-01
1407 O 3.1950e+01 1.4088e+01 3.5275e+01 OW 463 WAT_463 -8.3400e-01
1408 H1 3.2177e+01 1.4131e+01 3.4346e+01 HW 463 WAT_463 4.1700e-01
1409 H2 3.1498e+01 1.3249e+01 3.5372e+01 HW 463 WAT_463 4.1700e-01
1410 O 1.7636e+01 1.7544e+01 2.7501e+01 OW 464 WAT_464 -8.3400e-01
1411 H1 1.7571e+01 1.7952e+01 2.6637e+01 HW 464 WAT_464 4.1700e-01
1412 H2 1.8479e+01 1.7841e+01 2.7843e+01 HW 464 WAT_464 4.1700e-01
1413 O 2.4958e+01 3.1534e+01 3.0924e+01 OW 465 WAT_465 -8.3400e-01
1414 H1 2.5219e+01 3.1231e+01 3.0055e+01 HW 465 WAT_465 4.1700e-01
1415 H2 2.5074e+01 3.0769e+01 3.1489e+01 HW 465 WAT_465 4.1700e-01
1416 O 2.5837e+01 3.5239e+01 3.9904e+01 OW 466 WAT_466 -8.3400e-01
1417 H1 2.6102e+01 3.5177e+01 3.8986e+01 HW 466 WAT_466 4.1700e-01
1418 H2 2.4931e+01 3.5545e+01 3.9872e+01 HW 466 WAT_466 4.1700e-01
1419 O 1.3057e+01 1.6954e+01 3.3368e+01 OW 467 WAT_467 -8.3400e-01
1420 H1 1.3728e+01 1.7542e+01 3.3714e+01 HW 467 WAT_467 4.1700e-01
1421 H2 1.2616e+01 1.7466e+01 3.2690e+01 HW 467 WAT_467 4.1700e-01
1422 O 2.3628e+01 1.8679e+01 3.4850e+01 OW 468 WAT_468 -8.3400e-01
1423 H1 2.3358e+01 1.8744e+01 3.3933e+01 HW 468 WAT_468 4.1700e-01
1424 H2 2.4189e+01 1.7904e+01 3.4880e+01 HW 468 WAT_468 4.1700e-01
1425 O 1.6047e+01 1.6175e+01 3.6813e+01 OW 469 WAT_469 -8.3400e-01
1426 H1 1.6532e+01 1.6569e+01 3.6088e+01 HW 469 WAT_469 4.1700e-01
1427 H2 1.5208e+01 1.6635e+01 3.6818e+01 HW 469 WAT_469 4.1700e-01
1428 O 3.6250e+01 3.5831e+01 3.9303e+01 OW 470 WAT_470 -8.3400e-01
1429 H1 3.6848e+01 3.5988e+01 4.0033e+01 HW 470 WAT_470 4.1700e-01
1430 H2 3.5602e+01 3.5218e+01 3.9650e+01 HW 470 WAT_470 4.1700e-01
1431 O 2.0121e+01 1.3261e+01 2.5226e+01 OW 471 WAT_471 -8.3400e-01
1432 H1 1.9748e+01 1.3602e+01 2.4413e+01 HW 471 WAT_471 4.1700e-01
1433 H2 1.9694e+01 1.3767e+01 2.5916e+01 HW 471 WAT_471 4.1700e-01
1434 O 3.6949e+01 2.1029e+01 3.5419e+01 OW 472 WAT_472 -8.3400e-01
1435 H1 3.7221e+01 2.1939e+01 3.5301e+01 HW 472 WAT_472 4.1700e-01
1436 H2 3.6020e+01 2.1085e+01 3.5645e+01 HW 472 WAT_472 4.1700e-01
1437 O 2.1884e+01 1.6171e+01 3.8522e+01 OW 473 WAT_473 -8.3400e-01
1438 H1 2.1043e+01 1.6623e+01 3.8441e+01 HW 473 WAT_473 4.1700e-01
1439 H2 2.1852e+01 1.5758e+01 3.9384e+01 HW 473 WAT_473 4.1700e-01
1440 O 1.6944e+01 3.3739e+01 1.3334e+01 OW 474 WAT_474 -8.3400e-01
1441 H1 1.7020e+01 3.4026e+01 1.2424e+01 HW 474 WAT_474 4.1700e-01
1442 H2 1.7695e+01 3.3159e+01 1.3465e+01 HW 474 WAT_474 4.1700e-01
1443 O 1.3930e+01 1.8139e+01 2.7831e+01 OW 475 WAT_475 -8.3400e-01
1444 H1 1.4879e+01 1.8241e+01 2.7763e+01 HW 475 WAT_475 4.1700e-01
1445 H2 1.3659e+01 1.7829e+01 2.6967e+01 HW 475 WAT_475 4.1700e-01
1446 O 3.8035e+01 2.6043e+01 3.2208e+01 OW 476 WAT_476 -8.3400e-01
1447 H1 3.7686e+01 2.6743e+01 3.1656e+01 HW 476 WAT_476 4.1700e-01
1448 H2 3.8680e+01 2.5602e+01 3.1657e+01 HW 476 WAT_476 4.1700e-01
1449 O 1.3152e+01 2.1174e+01 3.7442e+01 OW 477 WAT_477 -8.3400e-01
1450 H1 1.2495e+01 2.0879e+01 3.6811e+01 HW 477 WAT_477 4.1700e-01
1451 H2 1.3080e+01 2.2128e+01 3.7434e+01 HW 477 WAT_477 4.1700e-01
1452 O 2.2392e+01 1.4865e+01 1.3460e+01 OW 478 WAT_478 -8.3400e-01
1453 H1 2.3251e+01 1.4522e+01 1.3707e+01 HW 478 WAT_478 4.1700e-01
1454 H2 2.1803e+01 1.4115e+01 1.3540e+01 HW 478 WAT_478 4.1700e-01
1455 O 2.2392e+01 2.0623e+01 3.9629e+01 OW 479 WAT_479 -8.3400e-01
1456 H1 2.1983e+01 2.0234e+01 4.0402e+01 HW 479 WAT_479 4.1700e-01
1457 H2 2.2604e+01 1.9877e+01 3.9068e+01 HW 479 WAT_479 4.1700e-01
1458 O 3.3679e+01 1.6898e+01 1.4343e+01 OW 480 WAT_480 -8.3400e-01
1459 H1 3.4334e+01 1.6552e+01 1.3737e+01 HW 480 WAT_480 4.1700e-01
1460 H2 3.2866e+01 1.6456e+01 1.4095e+01 HW 480 WAT_480 4.1700e-01
1461 O 1.6404e+01 3.8359e+01 3.9008e+01 OW 481 WAT_481 -8.3400e-01
1462 H1 1.7105e+01 3.9004e+01 3.8919e+01 HW 481 WAT_481 4.1700e-01
1463 H2 1.6784e+01 3.7545e+01 3.8678e+01 HW 481 WAT_481 4.1700e-01
1464 O 2.0053e+01 2.6635e+01 4.0274e+01 OW 482 WAT_482 -8.3400e-01
1465 H1 2.0634e+01 2.5900e+01 4.0469e+01 HW 482 WAT_482 4.1700e-01
1466 H2 1.9303e+01 2.6238e+01 3.9830e+01 HW 482 WAT_482 4.1700e-01
1467 O 1.9219e+01 1.4031e+01 3.4362e+01 OW 483 WAT_483 -8.3400e-01
1468 H1 1.8845e+01 1.3935e+01 3.3486e+01 HW 483 WAT_483 4.1700e-01
1469 H2 2.0017e+01 1.4541e+01 3.4228e+01 HW 483 WAT_483 4.1700e-01
1470 O 3.7456e+01 2.0485e+01 2.3432e+01 OW 484 WAT_484 -8.3400e-01
1471 H1 3.8020e+01 2.0356e+01 2.2669e+01 HW 484 WAT_484 4.1700e-01
1472 H2 3.7531e+01 2.1419e+01 2.3630e+01 HW 484 WAT_484 4.1700e-01
1473 O 1.7082e+01 1.6862e+01 3.1616e+01 OW 485 WAT_485 -8.3400e-01
1474 H1 1.6696e+01 1.7494e+01 3.1011e+01 HW 485 WAT_485 4.1700e-01
1475 H2 1.8025e+01 1.6935e+01 3.1470e+01 HW 485 WAT_485 4.1700e-01
1476 O 2.2726e+01 1.8534e+01 3.7583e+01 OW 486 WAT_486 -8.3400e-01
1477 H1 2.2789e+01 1.7638e+01 3.7915e+01 HW 486 WAT_486 4.1700e-01
1478 H2 2.2925e+01 1.8457e+01 3.6649e+01 HW 486 WAT_486 4.1700e-01
1479 O 2.0868e+01 2.5001e+01 2.9390e+01 OW 487 WAT_487 -8.3400e-01
1480 H1 2.1043e+01 2.5913e+01 2.9622e+01 HW 487 WAT_487 4.1700e-01
1481 H2 2.0966e+01 2.4521e+01 3.0212e+01 HW 487 WAT_487 4.1700e-01
1482 O 2.8405e+01 1.3199e+01 2.9937e+01 OW 488 WAT_488 -8.3400e-01
1483 H1 2.7523e+01 1.3190e+01 3.0310e+01 HW 488 WAT_488 4.1700e-01
1484 H2 2.8283e+01 1.2934e+01 2.9026e+01 HW 488 WAT_488 4.1700e-01
1485 O 1.6256e+01 3.1207e+01 3.8844e+01 OW 489 WAT_489 -8.3400e-01
1486 H1 1.7066e+01 3.0792e+01 3.8547e+01 HW 489 WAT_489 4.1700e-01
1487 H2 1.6458e+01 3.2142e+01 3.8856e+01 HW 489 WAT_489 4.1700e-01
1488 O 1.6288e+01 1.8705e+01 2.9739e+01 OW 490 WAT_490 -8.3400e-01
1489 H1 1.6766e+01 1.9348e+01 3.0263e+01 HW 490 WAT_490 4.1700e-01
1490 H2 1.6819e+01 1.8597e+01 2.8950e+01 HW 490 WAT_490 4.1700e-01
1491 O 1.9801e+01 1.8178e+01 3.8673e+01 OW 491 WAT_491 -8.3400e-01
1492 H1 1.9006e+01 1.8069e+01 3.9195e+01 HW 491 WAT_491 4.1700e-01
1493 H2 2.0247e+01 1.8927e+01 3.9070e+01 HW 491 WAT_491 4.1700e-01
1494 O 3.3262e+01 1.7043e+01 3.8452e+01 OW 492 WAT_492 -8.3400e-01
1495 H1 3.4149e+01 1.7107e+01 3.8805e+01 HW 492 WAT_492 4.1700e-01
1496 H2 3.2820e+01 1.6418e+01 3.9027e+01 HW 492 WAT_492 4.1700e-01
1497 O 2.6660e+01 3.8963e+01 3.8391e+01 OW 493 WAT_493 -8.3400e-01
1498 H1 2.6897e+01 3.9773e+01 3.7939e+01 HW 493 WAT_493 4.1700e-01
1499 H2 2.7321e+01 3.8330e+01 3.8110e+01 HW 493 WAT_493 4.1700e-01
1500 O 2.9036e+01 1.9512e+01 2.9221e+01 OW 494 WAT_494 -8.3400e-01
1501 H1 2.9444e+01 2.0186e+01 2.8678e+01 HW 494 WAT_494 4.1700e-01
1502 H2 2.8152e+01 1.9840e+01 2.9386e+01 HW 494 WAT_494 4.1700e-01
1503 O 1.4729e+01 1.8978e+01 3.4178e+01 OW 495 WAT_495 -8.3400e-01
1504 H1 1.5367e+01 1.8346e+01 3.4511e+01 HW 495 WAT_495 4.1700e-01
1505 H2 1.5011e+01 1.9817e+01 3.4543e+01 HW 495 WAT_495 4.1700e-01
1506 O 2.0220e+01 2.2402e+01 3.4692e+01 OW 496 WAT_496 -8.3400e-01
1507 H1 2.0475e+01 2.2631e+01 3.5586e+01 HW 496 WAT_496 4.1700e-01
1508 H2 2.0841e+01 2.1721e+01 3.4433e+01 HW 496 WAT_496 4.1700e-01
1509 O 2.5980e+01 1.7318e+01 3.4468e+01 OW 497 WAT_497 -8.3400e-01
1510 H1 2.6684e+01 1.7610e+01 3.5047e+01 HW 497 WAT_497 4.1700e-01
1511 H2 2.6180e+01 1.7722e+01 3.3624e+01 HW 497 WAT_497 4.1700e-01
1512 O 2.6012e+01 1.5296e+01 3.7398e+01 OW 498 WAT_498 -8.3400e-01
1513 H1 2.5918e+01 1.5169e+01 3.8342e+01 HW 498 WAT_498 4.1700e-01
1514 H2 2.6219e+01 1.6225e+01 3.7300e+01 HW 498 WAT_498 4.1700e-01
1515 O 1.9665e+01 3.2409e+01 3.6108e+01 OW 499 WAT_499 -8.3400e-01
1516 H1 1.9327e+01 3.2020e+01 3.5301e+01 HW 499 WAT_499 4.1700e-01
1517 H2 1.9366e+01 3.1820e+01 3.6801e+01 HW 499 WAT_499 4.1700e-01
1518 O 1.3760e+01 3.0181e+01 3.7713e+01 OW 500 WAT_500 -8.3400e-01
1519 H1 1.4535e+01 3.0735e+01 3.7626e+01 HW 500 WAT_500 4.1700e-01
1520 H2 1.3079e+01 3.0771e+01 3.8038e+01 HW 500 WAT_500 4.1700e-01
1521 O 3.6152e+01 1.7575e+01 3.2154e+01 OW 501 WAT_501 -8.3400e-01
1522 H1 3.6411e+01 1.7132e+01 3.1346e+01 HW 501 WAT_501 4.1700e-01
1523 H2 3.5827e+01 1.6873e+01 3.2718e+01 HW 501 WAT_501 4.1700e-01
1524 O 2.2480e+01 2.1528e+01 2.6032e+01 OW 502 WAT_502 -8.3400e-01
1525 H1 2.2254e+01 2.2419e+01 2.5766e+01 HW 502 WAT_502 4.1700e-01
1526 H2 2.1770e+01 2.0987e+01 2.5687e+01 HW 502 WAT_502 4.1700e-01
1527 O 2.8382e+01 1.4624e+01 3.4025e+01 OW 503 WAT_503 -8.3400e-01
1528 H1 2.8705e+01 1.5124e+01 3.4774e+01 HW 503 WAT_503 4.1700e-01
1529 H2 2.7455e+01 1.4482e+01 3.4212e+01 HW 503 WAT_503 4.1700e-01
1530 O 2.7087e+01 1.6046e+01 3.1461e+01 OW 504 WAT_504 -8.3400e-01
1531 H1 2.8006e+01 1.5929e+01 3.1700e+01 HW 504 WAT_504 4.1700e-01
1532 H2 2.7060e+01 1.5875e+01 3.0520e+01 HW 504 WAT_504 4.1700e-01
1533 O 1.5174e+01 2.2692e+01 3.2380e+01 OW 505 WAT_505 -8.3400e-01
1534 H1 1.4482e+01 2.2030e+01 3.2363e+01 HW 505 WAT_505 4.1700e-01
1535 H2 1.5866e+01 2.2301e+01 3.2912e+01 HW 505 WAT_505 4.1700e-01
1536 O 2.3034e+01 1.4381e+01 2.4014e+01 OW 506 WAT_506 -8.3400e-01
1537 H1 2.3300e+01 1.3945e+01 2.3204e+01 HW 506 WAT_506 4.1700e-01
1538 H2 2.2079e+01 1.4330e+01 2.4011e+01 HW 506 WAT_506 4.1700e-01
1539 O 2.0601e+01 2.6416e+01 3.4510e+01 OW 507 WAT_507 -8.3400e-01
1540 H1 2.1223e+01 2.6854e+01 3.3929e+01 HW 507 WAT_507 4.1700e-01
1541 H2 2.1146e+01 2.5875e+01 3.5082e+01 HW 507 WAT_507 4.1700e-01
1542 O 2.9210e+01 3.5515e+01 3.9219e+01 OW 508 WAT_508 -8.3400e-01
1543 H1 2.8965e+01 3.6053e+01 3.8466e+01 HW 508 WAT_508 4.1700e-01
1544 H2 3.0142e+01 3.5690e+01 3.9345e+01 HW 508 WAT_508 4.1700e-01
1545 O 1.7226e+01 1.5447e+01 3.9310e+01 OW 509 WAT_509 -8.3400e-01
1546 H1 1.6922e+01 1.5395e+01 3.8404e+01 HW 509 WAT_509 4.1700e-01
1547 H2 1.7728e+01 1.4643e+01 3.9441e+01 HW 509 WAT_509 4.1700e-01
1548 O 1.7790e+01 2.0549e+01 3.1287e+01 OW 510 WAT_510 -8.3400e-01
1549 H1 1.7514e+01 2.0820e+01 3.2163e+01 HW 510 WAT_510 4.1700e-01
1550 H2 1.8479e+01 2.1171e+01 3.1050e+01 HW 510 WAT_510 4.1700e-01
1551 O 3.5887e+01 1.7479e+01 3.9059e+01 OW 511 WAT_511 -8.3400e-01
1552 H1 3.6711e+01 1.7613e+01 3.9527e+01 HW 511 WAT_511 4.1700e-01
1553 H2 3.6152e+01 1.7216e+01 3.8177e+01 HW 511 WAT_511 4.1700e-01
1554 O 2.6168e+01 1.9548e+01 2.9268e+01 OW 512 WAT_512 -8.3400e-01
1555 H1 2.5534e+01 2.0245e+01 2.9100e+01 HW 512 WAT_512 4.1700e-01
1556 H2 2.6044e+01 1.9330e+01 3.0192e+01 HW 512 WAT_512 4.1700e-01
1557 O 1.7280e+01 1.9113e+01 2.5290e+01 OW 513 WAT_513 -8.3400e-01
1558 H1 1.7639e+01 1.9670e+01 2.4599e+01 HW 513 WAT_513 4.1700e-01
1559 H2 1.6331e+01 1.9186e+01 2.5187e+01 HW 513 WAT_513 4.1700e-01
1560 O 2.4535e+01 3.5820e+01 3.2438e+01 OW 514 WAT_514 -8.3400e-01
1561 H1 2.3708e+01 3.5376e+01 3.2249e+01 HW 514 WAT_514 4.1700e-01
1562 H2 2.4278e+01 3.6704e+01 3.2700e+01 HW 514 WAT_514 4.1700e-01
1563 O 2.1837e+01 1.7808e+01 1.3624e+01 OW 515 WAT_515 -8.3400e-01
1564 H1 2.2444e+01 1.7279e+01 1.3106e+01 HW 515 WAT_515 4.1700e-01
1565 H2 2.1423e+01 1.7183e+01 1.4219e+01 HW 515 WAT_515 4.1700e-01
1566 O 1.5079e+01 1.9023e+01 3.8526e+01 OW 516 WAT_516 -8.3400e-01
1567 H1 1.4833e+01 1.8581e+01 3.7714e+01 HW 516 WAT_516 4.1700e-01
1568 H2 1.4321e+01 1.8910e+01 3.9099e+01 HW 516 WAT_516 4.1700e-01
1569 O 3.8306e+01 1.6485e+01 4.0076e+01 OW 517 WAT_517 -8.3400e-01
1570 H1 3.9187e+01 1.6126e+01 4.0185e+01 HW 517 WAT_517 4.1700e-01
1571 H2 3.7729e+01 1.5723e+01 4.0125e+01 HW 517 WAT_517 4.1700e-01
1572 O 1.3716e+01 2.0953e+01 4.0216e+01 OW 518 WAT_518 -8.3400e-01
1573 H1 1.3550e+01 2.1101e+01 3.9285e+01 HW 518 WAT_518 4.1700e-01
1574 H2 1.4227e+01 2.1713e+01 4.0492e+01 HW 518 WAT_518 4.1700e-01
1575 O 2.1223e+01 2.0208e+01 1.4837e+01 OW 519 WAT_519 -8.3400e-01
1576 H1 2.1491e+01 1.9313e+01 1.4631e+01 HW 519 WAT_519 4.1700e-01
1577 H2 2.1865e+01 2.0507e+01 1.5482e+01 HW 519 WAT_519 4.1700e-01
1578 O 2.1577e+01 1.5009e+01 3.0702e+01 OW 520 WAT_520 -8.3400e-01
1579 H1 2.1338e+01 1.4892e+01 2.9783e+01 HW 520 WAT_520 4.1700e-01
1580 H2 2.1412e+01 1.4155e+01 3.1103e+01 HW 520 WAT_520 4.1700e-01
1581 O 1.9856e+01 2.2446e+01 3.1687e+01 OW 521 WAT_521 -8.3400e-01
1582 H1 2.0719e+01 2.2858e+01 3.1727e+01 HW 521 WAT_521 4.1700e-01
1583 H2 1.9710e+01 2.2110e+01 3.2571e+01 HW 521 WAT_521 4.1700e-01
1584 O 2.8265e+01 2.4464e+01 1.8130e+01 OW 522 WAT_522 -8.3400e-01
1585 H1 2.8909e+01 2.5049e+01 1.7732e+01 HW 522 WAT_522 4.1700e-01
1586 H2 2.8787e+01 2.3837e+01 1.8631e+01 HW 522 WAT_522 4.1700e-01
1587 O 1.4811e+01 2.3697e+01 1.3606e+01 OW 523 WAT_523 -8.3400e-01
1588 H1 1.5425e+01 2.3927e+01 1.2908e+01 HW 523 WAT_523 4.1700e-01
1589 H2 1.5295e+01 2.3863e+01 1.4415e+01 HW 523 WAT_523 4.1700e-01
1590 O 2.2657e+01 2.8155e+01 3.5889e+01 OW 524 WAT_524 -8.3400e-01
1591 H1 2.2774e+01 2.8053e+01 3.6834e+01 HW 524 WAT_524 4.1700e-01
1592 H2 2.3126e+01 2.7413e+01 3.5508e+01 HW 524 WAT_524 4.1700e-01
1593 O 2.3377e+01 1.5251e+01 3.6202e+01 OW 525 WAT_525 -8.3400e-01
1594 H1 2.4315e+01 1.5357e+01 3.6361e+01 HW 525 WAT_525 4.1700e-01
1595 H2 2.2965e+01 1.5485e+01 3.7034e+01 HW 525 WAT_525 4.1700e-01
1596 O 3.0170e+01 1.3495e+01 4.0136e+01 OW 526 WAT_526 -8.3400e-01
1597 H1 3.0261e+01 1.2858e+01 3.9427e+01 HW 526 WAT_526 4.1700e-01
1598 H2 2.9705e+01 1.4231e+01 3.9739e+01 HW 526 WAT_526 4.1700e-01
1599 O 1.3190e+01 1.3538e+01 2.4746e+01 OW 527 WAT_527 -8.3400e-01
1600 H1 1.2322e+01 1.3204e+01 2.4970e+01 HW 527 WAT_527 4.1700e-01
1601 H2 1.3539e+01 1.2899e+01 2.4124e+01 HW 527 WAT_527 4.1700e-01
1602 O 2.5541e+01 1.9102e+01 2.2270e+01 OW 528 WAT_528 -8.3400e-01
1603 H1 2.5019e+01 1.8452e+01 2.2741e+01 HW 528 WAT_528 4.1700e-01
1604 H2 2.5645e+01 1.8735e+01 2.1392e+01 HW 528 WAT_528 4.1700e-01
1605 O 1.5584e+01 2.0764e+01 3.6180e+01 OW 529 WAT_529 -8.3400e-01
1606 H1 1.4655e+01 2.0919e+01 3.6348e+01 HW 529 WAT_529 4.1700e-01
1607 H2 1.5958e+01 2.0584e+01 3.7043e+01 HW 529 WAT_529 4.1700e-01
1608 O 2.8017e+01 2.8189e+01 2.1817e+01 OW 530 WAT_530 -8.3400e-01
1609 H1 2.8034e+01 2.7464e+01 2.1192e+01 HW 530 WAT_530 4.1700e-01
1610 H2 2.8732e+01 2.7998e+01 2.2424e+01 HW 530 WAT_530 4.1700e-01
1611 O 2.7206e+01 1.7656e+01 3.8167e+01 OW 531 WAT_531 -8.3400e-01
1612 H1 2.7090e+01 1.8435e+01 3.8711e+01 HW 531 WAT_531 4.1700e-01
1613 H2 2.7723e+01 1.7960e+01 3.7421e+01 HW 531 WAT_531 4.1700e-01
1614 O 2.3297e+01 1.7465e+01 3.0826e+01 OW 532 WAT_532 -8.3400e-01
1615 H1 2.3145e+01 1.6601e+01 3.1207e+01 HW 532 WAT_532 4.1700e-01
1616 H2 2.3461e+01 1.7293e+01 2.9899e+01 HW 532 WAT_532 4.1700e-01
1617 O 2.3152e+01 2.0111e+01 3.1074e+01 OW 533 WAT_533 -8.3400e-01
1618 H1 2.3205e+01 2.0466e+01 3.0186e+01 HW 533 WAT_533 4.1700e-01
1619 H2 2.3102e+01 1.9163e+01 3.0950e+01 HW 533 WAT_533 4.1700e-01
1620 O 2.0590e+01 1.8067e+01 3.3396e+01 OW 534 WAT_534 -8.3400e-01
1621 H1 2.1068e+01 1.7383e+01 3.3865e+01 HW 534 WAT_534 4.1700e-01
1622 H2 2.0505e+01 1.7731e+01 3.2504e+01 HW 534 WAT_534 4.1700e-01
1623 O 2.4886e+01 3.8812e+01 1.3175e+01 OW 535 WAT_535 -8.3400e-01
1624 H1 2.5454e+01 3.8572e+01 1.2443e+01 HW 535 WAT_535 4.1700e-01
1625 H2 2.4436e+01 3.7999e+01 1.3406e+01 HW 535 WAT_535 4.1700e-01
1626 O 2.5822e+01 2.1521e+01 1.9852e+01 OW 536 WAT_536 -8.3400e-01
1627 H1 2.6469e+01 2.0834e+01 2.0010e+01 HW 536 WAT_536 4.1700e-01
1628 H2 2.5186e+01 2.1120e+01 1.9260e+01 HW 536 WAT_536 4.1700e-01
1629 O 2.9960e+01 2.6019e+01 1.6863e+01 OW 537 WAT_537 -8.3400e-01
1630 H1 3.0097e+01 2.5985e+01 1.5916e+01 HW 537 WAT_537 4.1700e-01
1631 H2 3.0811e+01 2.5790e+01 1.7237e+01 HW 537 WAT_537 4.1700e-01
1632 O 2.3459e+01 2.3783e+01 1.5855e+01 OW 538 WAT_538 -8.3400e-01
1633 H1 2.3386e+01 2.4240e+01 1.6693e+01 HW 538 WAT_538 4.1700e-01
1634 H2 2.3763e+01 2.4452e+01 1.5243e+01 HW 538 WAT_538 4.1700e-01
1635 O 1.6862e+01 2.0077e+01 1.8854e+01 OW 539 WAT_539 -8.3400e-01
1636 H1 1.6010e+01 1.9684e+01 1.8668e+01 HW 539 WAT_539 4.1700e-01
1637 H2 1.7496e+01 1.9448e+01 1.8511e+01 HW 539 WAT_539 4.1700e-01
1638 O 2.3242e+01 2.1798e+01 2.1796e+01 OW 540 WAT_540 -8.3400e-01
1639 H1 2.3687e+01 2.2164e+01 2.1031e+01 HW 540 WAT_540 4.1700e-01
1640 H2 2.2310e+01 2.1903e+01 2.1603e+01 HW 540 WAT_540 4.1700e-01
1641 O 1.5181e+01 2.2159e+01 1.7057e+01 OW 541 WAT_541 -8.3400e-01
1642 H1 1.4449e+01 2.1588e+01 1.6823e+01 HW 541 WAT_541 4.1700e-01
1643 H2 1.5766e+01 2.1601e+01 1.7568e+01 HW 541 WAT_541 4.1700e-01
1644 O 1.3023e+01 2.7729e+01 2.3040e+01 OW 542 WAT_542 -8.3400e-01
1645 H1 1.2604e+01 2.7343e+01 2.2270e+01 HW 542 WAT_542 4.1700e-01
1646 H2 1.3853e+01 2.7260e+01 2.3121e+01 HW 542 WAT_542 4.1700e-01
1647 O 2.3798e+01 1.8832e+01 1.6088e+01 OW 543 WAT_543 -8.3400e-01
1648 H1 2.3948e+01 1.8580e+01 1.5177e+01 HW 543 WAT_543 4.1700e-01
1649 H2 2.4095e+01 1.8078e+01 1.6598e+01 HW 543 WAT_543 4.1700e-01
1650 O 2.1334e+01 3.8743e+01 3.7372e+01 OW 544 WAT_544 -8.3400e-01
1651 H1 2.2207e+01 3.8858e+01 3.7746e+01 HW 544 WAT_544 4.1700e-01
1652 H2 2.1481e+01 3.8703e+01 3.6427e+01 HW 544 WAT_544 4.1700e-01
1653 O 2.0780e+01 1.8235e+01 2.0744e+01 OW 545 WAT_545 -8.3400e-01
1654 H1 2.0042e+01 1.8752e+01 2.1069e+01 HW 545 WAT_545 4.1700e-01
1655 H2 2.0812e+01 1.8425e+01 1.9807e+01 HW 545 WAT_545 4.1700e-01
1656 O 1.4631e+01 1.8717e+01 2.4317e+01 OW 546 WAT_546 -8.3400e-01
1657 H1 1.5276e+01 1.8303e+01 2.3744e+01 HW 546 WAT_546 4.1700e-01
1658 H2 1.4262e+01 1.7993e+01 2.4825e+01 HW 546 WAT_546 4.1700e-01
1659 O 1.2580e+01 2.8208e+01 1.6951e+01 OW 547 WAT_547 -8.3400e-01
1660 H1 1.3381e+01 2.7724e+01 1.6749e+01 HW 547 WAT_547 4.1700e-01
1661 H2 1.2852e+01 2.8864e+01 1.7593e+01 HW 547 WAT_547 4.1700e-01
1662 O 2.4824e+01 1.6619e+01 1.7125e+01 OW 548 WAT_548 -8.3400e-01
1663 H1 2.5328e+01 1.6430e+01 1.7916e+01 HW 548 WAT_548 4.1700e-01
1664 H2 2.4517e+01 1.5763e+01 1.6826e+01 HW 548 WAT_548 4.1700e-01
1665 O 2.5125e+01 2.1619e+01 3.8943e+01 OW 549 WAT_549 -8.3400e-01
1666 H1 2.4340e+01 2.1331e+01 3.9409e+01 HW 549 WAT_549 4.1700e-01
1667 H2 2.4905e+01 2.1519e+01 3.8017e+01 HW 549 WAT_549 4.1700e-01
1668 O 1.5223e+01 3.6722e+01 2.6411e+01 OW 550 WAT_550 -8.3400e-01
1669 H1 1.6086e+01 3.6430e+01 2.6703e+01 HW 550 WAT_550 4.1700e-01
1670 H2 1.5094e+01 3.6285e+01 2.5569e+01 HW 550 WAT_550 4.1700e-01
1671 O 2.0750e+01 1.5343e+01 2.1737e+01 OW 551 WAT_551 -8.3400e-01
1672 H1 2.0208e+01 1.5863e+01 2.2330e+01 HW 551 WAT_551 4.1700e-01
1673 H2 2.0768e+01 1.5848e+01 2.0924e+01 HW 551 WAT_551 4.1700e-01
1674 O 2.3334e+01 2.1006e+01 2.8519e+01 OW 552 WAT_552 -8.3400e-01
1675 H1 2.2897e+01 2.1175e+01 2.7685e+01 HW 552 WAT_552 4.1700e-01
1676 H2 2.4151e+01 2.1502e+01 2.8466e+01 HW 552 WAT_552 4.1700e-01
1677 O 1.7047e+01 2.3931e+01 2.2684e+01 OW 553 WAT_553 -8.3400e-01
1678 H1 1.6506e+01 2.4655e+01 2.2368e+01 HW 553 WAT_553 4.1700e-01
1679 H2 1.7931e+01 2.4295e+01 2.2731e+01 HW 553 WAT_553 4.1700e-01
1680 O 1.9065e+01 1.5637e+01 1.6494e+01 OW 554 WAT_554 -8.3400e-01
1681 H1 1.8907e+01 1.4789e+01 1.6079e+01 HW 554 WAT_554 4.1700e-01
1682 H2 1.9976e+01 1.5841e+01 1.6284e+01 HW 554 WAT_554 4.1700e-01
1683 O 2.1068e+01 1.7556e+01 2.4792e+01 OW 555 WAT_555 -8.3400e-01
1684 H1 2.1320e+01 1.8026e+01 2.3997e+01 HW 555 WAT_555 4.1700e-01
1685 H2 2.0309e+01 1.7034e+01 2.4530e+01 HW 555 WAT_555 4.1700e-01
1686 O 2.6534e+01 2.2431e+01 1.7276e+01 OW 556 WAT_556 -8.3400e-01
1687 H1 2.7352e+01 2.2915e+01 1.7164e+01 HW 556 WAT_556 4.1700e-01
1688 H2 2.6463e+01 2.2296e+01 1.8221e+01 HW 556 WAT_556 4.1700e-01
1689 O 1.8281e+01 2.2550e+01 1.9875e+01 OW 557 WAT_557 -8.3400e-01
1690 H1 1.7706e+01 2.1840e+01 1.9589e+01 HW 557 WAT_557 4.1700e-01
1691 H2 1.8862e+01 2.2702e+01 1.9130e+01 HW 557 WAT_557 4.1700e-01
1692 O 2.4001e+01 1.9961e+01 1.8630e+01 OW 558 WAT_558 -8.3400e-01
1693 H1 2.3643e+01 1.9396e+01 1.7946e+01 HW 558 WAT_558 4.1700e-01
1694 H2 2.4006e+01 1.9413e+01 1.9415e+01 HW 558 WAT_558 4.1700e-01
1695 O 1.9125e+01 1.9466e+01 3.6109e+01 OW 559 WAT_559 -8.3400e-01
1696 H1 1.9225e+01 1.8981e+01 3.6928e+01 HW 559 WAT_559 4.1700e-01
1697 H2 1.9836e+01 1.9148e+01 3.5553e+01 HW 559 WAT_559 4.1700e-01
1698 O 1.8653e+01 2.1254e+01 1.4329e+01 OW 560 WAT_560 -8.3400e-01
1699 H1 1.8826e+01 2.1963e+01 1.4948e+01 HW 560 WAT_560 4.1700e-01
1700 H2 1.9518e+01 2.0900e+01 1.4121e+01 HW 560 WAT_560 4.1700e-01
1701 O 2.2084e+01 2.1543e+01 1.7127e+01 OW 561 WAT_561 -8.3400e-01
1702 H1 2.2612e+01 2.2180e+01 1.6646e+01 HW 561 WAT_561 4.1700e-01
1703 H2 2.2628e+01 2.1298e+01 1.7876e+01 HW 561 WAT_561 4.1700e-01
1704 O 1.9881e+01 2.3180e+01 1.7844e+01 OW 562 WAT_562 -8.3400e-01
1705 H1 2.0545e+01 2.2522e+01 1.7637e+01 HW 562 WAT_562 4.1700e-01
1706 H2 2.0372e+01 2.3997e+01 1.7931e+01 HW 562 WAT_562 4.1700e-01
1707 O 2.3520e+01 1.7357e+01 2.0979e+01 OW 563 WAT_563 -8.3400e-01
1708 H1 2.2620e+01 1.7657e+01 2.1108e+01 HW 563 WAT_563 4.1700e-01
1709 H2 2.3788e+01 1.7030e+01 2.1838e+01 HW 563 WAT_563 4.1700e-01
1710 O 2.9954e+01 2.2515e+01 1.5677e+01 OW 564 WAT_564 -8.3400e-01
1711 H1 3.0247e+01 2.2025e+01 1.6445e+01 HW 564 WAT_564 4.1700e-01
1712 H2 2.9904e+01 2.1860e+01 1.4980e+01 HW 564 WAT_564 4.1700e-01
1713 O 1.4446e+01 1.8481e+01 1.9196e+01 OW 565 WAT_565 -8.3400e-01
1714 H1 1.5080e+01 1.7877e+01 1.9584e+01 HW 565 WAT_565 4.1700e-01
1715 H2 1.4320e+01 1.8155e+01 1.8305e+01 HW 565 WAT_565 4.1700e-01
1716 O 1.6913e+01 1.7410e+01 3.4425e+01 OW 566 WAT_566 -8.3400e-01
1717 H1 1.7689e+01 1.7947e+01 3.4583e+01 HW 566 WAT_566 4.1700e-01
1718 H2 1.7094e+01 1.6964e+01 3.3598e+01 HW 566 WAT_566 4.1700e-01
1719 O 2.6622e+01 1.9548e+01 2.6672e+01 OW 567 WAT_567 -8.3400e-01
1720 H1 2.5707e+01 1.9342e+01 2.6478e+01 HW 567 WAT_567 4.1700e-01
1721 H2 2.6657e+01 1.9608e+01 2.7626e+01 HW 567 WAT_567 4.1700e-01
1722 O 2.1720e+01 1.6235e+01 1.6212e+01 OW 568 WAT_568 -8.3400e-01
1723 H1 2.2309e+01 1.5525e+01 1.5956e+01 HW 568 WAT_568 4.1700e-01
1724 H2 2.2304e+01 1.6957e+01 1.6447e+01 HW 568 WAT_568 4.1700e-01
1725 O 2.2501e+01 1.9514e+01 2.3225e+01 OW 569 WAT_569 -8.3400e-01
1726 H1 2.3230e+01 2.0131e+01 2.3157e+01 HW 569 WAT_569 4.1700e-01
1727 H2 2.1838e+01 1.9859e+01 2.2627e+01 HW 569 WAT_569 4.1700e-01
1728 O 2.8304e+01 3.1224e+01 1.3231e+01 OW 570 WAT_570 -8.3400e-01
1729 H1 2.7501e+01 3.1743e+01 1.3223e+01 HW 570 WAT_570 4.1700e-01
1730 H2 2.8140e+01 3.0518e+01 1.2605e+01 HW 570 WAT_570 4.1700e-01
1731 O 1.6726e+01 2.4437e+01 1.6415e+01 OW 571 WAT_571 -8.3400e-01
1732 H1 1.6899e+01 2.4656e+01 1.7330e+01 HW 571 WAT_571 4.1700e-01
1733 H2 1.6322e+01 2.3570e+01 1.6448e+01 HW 571 WAT_571 4.1700e-01
1734 O 1.8915e+01 1.4636e+01 2.7245e+01 OW 572 WAT_572 -8.3400e-01
1735 H1 1.8458e+01 1.4326e+01 2.8026e+01 HW 572 WAT_572 4.1700e-01
1736 H2 1.8426e+01 1.5413e+01 2.6974e+01 HW 572 WAT_572 4.1700e-01
1737 O 1.3577e+01 1.5091e+01 1.8788e+01 OW 573 WAT_573 -8.3400e-01
1738 H1 1.4350e+01 1.4665e+01 1.8418e+01 HW 573 WAT_573 4.1700e-01
1739 H2 1.3321e+01 1.5738e+01 1.8131e+01 HW 573 WAT_573 4.1700e-01
1740 O 2.3962e+01 1.4126e+01 1.6170e+01 OW 574 WAT_574 -8.3400e-01
1741 H1 2.3244e+01 1.3522e+01 1.6358e+01 HW 574 WAT_574 4.1700e-01
1742 H2 2.4754e+01 1.3611e+01 1.6319e+01 HW 574 WAT_574 4.1700e-01
1743 O 1.7269e+01 1.8037e+01 3.9822e+01 OW 575 WAT_575 -8.3400e-01
1744 H1 1.6508e+01 1.8374e+01 3.9350e+01 HW 575 WAT_575 4.1700e-01
1745 H2 1.7238e+01 1.7090e+01 3.9683e+01 HW 575 WAT_575 4.1700e-01
1746 O 2.4080e+01 2.1463e+01 3.6456e+01 OW 576 WAT_576 -8.3400e-01
1747 H1 2.3255e+01 2.1908e+01 3.6648e+01 HW 576 WAT_576 4.1700e-01
1748 H2 2.3833e+01 2.0550e+01 3.6312e+01 HW 576 WAT_576 4.1700e-01
1749 O 2.0515e+01 1.8847e+01 1.8011e+01 OW 577 WAT_577 -8.3400e-01
1750 H1 2.0648e+01 1.9389e+01 1.7233e+01 HW 577 WAT_577 4.1700e-01
1751 H2 2.0710e+01 1.7956e+01 1.7718e+01 HW 577 WAT_577 4.1700e-01
1752 O 2.2918e+01 2.7926e+01 2.2144e+01 OW 578 WAT_578 -8.3400e-01
1753 H1 2.3005e+01 2.7063e+01 2.2550e+01 HW 578 WAT_578 4.1700e-01
1754 H2 2.2942e+01 2.7751e+01 2.1204e+01 HW 578 WAT_578 4.1700e-01
1755 O 2.0485e+01 3.2678e+01 1.9461e+01 OW 579 WAT_579 -8.3400e-01
1756 H1 2.0642e+01 3.2564e+01 2.0398e+01 HW 579 WAT_579 4.1700e-01
1757 H2 2.1335e+01 3.2510e+01 1.9053e+01 HW 579 WAT_579 4.1700e-01
1758 O 2.3607e+01 2.8032e+01 1.9314e+01 OW 580 WAT_580 -8.3400e-01
1759 H1 2.3941e+01 2.7433e+01 1.8646e+01 HW 580 WAT_580 4.1700e-01
1760 H2 2.4389e+01 2.8455e+01 1.9669e+01 HW 580 WAT_580 4.1700e-01
1761 O 2.9327e+01 3.6882e+01 1.6400e+01 OW 581 WAT_581 -8.3400e-01
1762 H1 2.8673e+01 3.6437e+01 1.5862e+01 HW 581 WAT_581 4.1700e-01
1763 H2 2.9695e+01 3.6192e+01 1.6952e+01 HW 581 WAT_581 4.1700e-01
1764 O 3.8098e+01 2.3428e+01 2.3780e+01 OW 582 WAT_582 -8.3400e-01
1765 H1 3.8622e+01 2.3751e+01 2.4513e+01 HW 582 WAT_582 4.1700e-01
1766 H2 3.8646e+01 2.3577e+01 2.3010e+01 HW 582 WAT_582 4.1700e-01
1767 O 2.4394e+01 1.3434e+01 2.8921e+01 OW 583 WAT_583 -8.3400e-01
1768 H1 2.3459e+01 1.3291e+01 2.9067e+01 HW 583 WAT_583 4.1700e-01
1769 H2 2.4507e+01 1.3335e+01 2.7975e+01 HW 583 WAT_583 4.1700e-01
1770 O 1.5903e+01 1.5281e+01 2.7775e+01 OW 584 WAT_584 -8.3400e-01
1771 H1 1.5864e+01 1.5073e+01 2.6842e+01 HW 584 WAT_584 4.1700e-01
1772 H2 1.6503e+01 1.6025e+01 2.7829e+01 HW 584 WAT_584 4.1700e-01
1773 O 3.5807e+01 1.8371e+01 1.9639e+01 OW 585 WAT_585 -8.3400e-01
1774 H1 3.6315e+01 1.9023e+01 1.9156e+01 HW 585 WAT_585 4.1700e-01
1775 H2 3.5938e+01 1.7557e+01 1.9151e+01 HW 585 WAT_585 4.1700e-01
1776 O 1.7587e+01 1.7856e+01 1.7545e+01 OW 586 WAT_586 -8.3400e-01
1777 H1 1.8139e+01 1.7102e+01 1.7339e+01 HW 586 WAT_586 4.1700e-01
1778 H2 1.7301e+01 1.8184e+01 1.6692e+01 HW 586 WAT_586 4.1700e-01
1779 O 2.0652e+01 3.5947e+01 1.3942e+01 OW 587 WAT_587 -8.3400e-01
1780 H1 2.0106e+01 3.5502e+01 1.3293e+01 HW 587 WAT_587 4.1700e-01
1781 H2 2.0191e+01 3.5820e+01 1.4771e+01 HW 587 WAT_587 4.1700e-01
1782 O 2.6861e+01 1.9698e+01 3.9832e+01 OW 588 WAT_588 -8.3400e-01
1783 H1 2.6589e+01 1.9769e+01 4.0747e+01 HW 588 WAT_588 4.1700e-01
1784 H2 2.6405e+01 2.0415e+01 3.9391e+01 HW 588 WAT_588 4.1700e-01
1785 O 2.7814e+01 2.2172e+01 2.5265e+01 OW 589 WAT_589 -8.3400e-01
1786 H1 2.7617e+01 2.1741e+01 2.4433e+01 HW 589 WAT_589 4.1700e-01
1787 H2 2.7376e+01 2.1633e+01 2.5924e+01 HW 589 WAT_589 4.1700e-01
1788 O 1.5473e+01 2.6061e+01 2.1719e+01 OW 590 WAT_590 -8.3400e-01
1789 H1 1.4868e+01 2.6387e+01 2.1053e+01 HW 590 WAT_590 4.1700e-01
1790 H2 1.6326e+01 2.6409e+01 2.1459e+01 HW 590 WAT_590 4.1700e-01
1791 O 3.6229e+01 2.5656e+01 2.8505e+01 OW 591 WAT_591 -8.3400e-01
1792 H1 3.6973e+01 2.5531e+01 2.7916e+01 HW 591 WAT_591 4.1700e-01
1793 H2 3.6624e+01 2.5794e+01 2.9365e+01 HW 591 WAT_591 4.1700e-01
1794 O 1.3343e+01 1.4508e+01 2.8781e+01 OW 592 WAT_592 -8.3400e-01
1795 H1 1.4276e+01 1.4584e+01 2.8580e+01 HW 592 WAT_592 4.1700e-01
1796 H2 1.3011e+01 1.3878e+01 2.8141e+01 HW 592 WAT_592 4.1700e-01
1797 O 2.0733e+01 3.6225e+01 2.0837e+01 OW 593 WAT_593 -8.3400e-01
1798 H1 1.9861e+01 3.6138e+01 2.0452e+01 HW 593 WAT_593 4.1700e-01
1799 H2 2.0740e+01 3.7103e+01 2.1219e+01 HW 593 WAT_593 4.1700e-01
1800 O 2.9704e+01 1.8700e+01 2.0731e+01 OW 594 WAT_594 -8.3400e-01
1801 H1 2.9195e+01 1.9493e+01 2.0898e+01 HW 594 WAT_594 4.1700e-01
1802 H2 2.9547e+01 1.8149e+01 2.1498e+01 HW 594 WAT_594 4.1700e-01
1803 O 1.9099e+01 2.4849e+01 3.8266e+01 OW 595 WAT_595 -8.3400e-01
1804 H1 1.9965e+01 2.5062e+01 3.7919e+01 HW 595 WAT_595 4.1700e-01
1805 H2 1.8830e+01 2.4072e+01 3.7776e+01 HW 595 WAT_595 4.1700e-01
1806 O 2.9755e+01 2.1743e+01 1.9316e+01 OW 596 WAT_596 -8.3400e-01
1807 H1 3.0663e+01 2.2005e+01 1.9466e+01 HW 596 WAT_596 4.1700e-01
1808 H2 2.9445e+01 2.1450e+01 2.0173e+01 HW 596 WAT_596 4.1700e-01
1809 O 3.4138e+01 2.2590e+01 2.4775e+01 OW 597 WAT_597 -8.3400e-01
1810 H1 3.4659e+01 2.3393e+01 2.4749e+01 HW 597 WAT_597 4.1700e-01
1811 H2 3.3381e+01 2.2813e+01 2.5317e+01 HW 597 WAT_597 4.1700e-01
1812 O 2.4623e+01 2.2522e+01 3.3885e+01 OW 598 WAT_598 -8.3400e-01
1813 H1 2.4373e+01 2.2112e+01 3.4713e+01 HW 598 WAT_598 4.1700e-01
1814 H2 2.5145e+01 2.1856e+01 3.3437e+01 HW 598 WAT_598 4.1700e-01
1815 O 2.2163e+01 1.7508e+01 2.7268e+01 OW 599 WAT_599 -8.3400e-01
1816 H1 2.1736e+01 1.7321e+01 2.6432e+01 HW 599 WAT_599 4.1700e-01
1817 H2 2.2983e+01 1.7938e+01 2.7027e+01 HW 599 WAT_599 4.1700e-01
1818 O 1.7514e+01 3.5668e+01 2.7500e+01 OW 600 WAT_600 -8.3400e-01
1819 H1 1.8365e+01 3.5245e+01 2.7614e+01 HW 600 WAT_600 4.1700e-01
1820 H2 1.7348e+01 3.6102e+01 2.8338e+01 HW 600 WAT_600 4.1700e-01
1821 O 2.4845e+01 1.6450e+01 2.8570e+01 OW 601 WAT_601 -8.3400e-01
1822 H1 2.4828e+01 1.5546e+01 2.8885e+01 HW 601 WAT_601 4.1700e-01
1823 H2 2.5720e+01 1.6557e+01 2.8197e+01 HW 601 WAT_601 4.1700e-01
1824 O 2.4967e+01 2.4232e+01 2.0346e+01 OW 602 WAT_602 -8.3400e-01
1825 H1 2.5396e+01 2.3426e+01 2.0060e+01 HW 602 WAT_602 4.1700e-01
1826 H2 2.5653e+01 2.4898e+01 2.0297e+01 HW 602 WAT_602 4.1700e-01
1827 O 2.1524e+01 1.4755e+01 2.8080e+01 OW 603 WAT_603 -8.3400e-01
1828 H1 2.1869e+01 1.5572e+01 2.7721e+01 HW 603 WAT_603 4.1700e-01
1829 H2 2.0804e+01 1.4522e+01 2.7494e+01 HW 603 WAT_603 4.1700e-01
1830 O 3.7080e+01 2.4904e+01 1.8911e+01 OW 604 WAT_604 -8.3400e-01
1831 H1 3.6668e+01 2.4881e+01 1.9775e+01 HW 604 WAT_604 4.1700e-01
1832 H2 3.6349e+01 2.4862e+01 1.8295e+01 HW 604 WAT_604 4.1700e-01
@<TRIPOS>BOND
1 2 1 1 
2 3 1 1 
3 3 12 1 
4 4 2 1 
5 4 9 1 
6 5 3 1 
7 5 10 1 
8 6 4 1 
9 6 5 1 
10 6 11 1 
11 7 1 1 
12 8 2 1 
13 13 12 1 
14 15 14 1 
15 16 14 1 
16 17 15 1 
17 18 16 1 
18 19 17 1 
19 19 18 1 
20 20 14 1 
21 21 15 1 
22 22 17 1 
23 23 18 1 
24 24 19 1 
25 25 16 1 
26 25 26 1 
27 28 27 1 
28 29 27 1 
29 29 28 1 
30 31 30 1 
31 32 30 1 
32 32 31 1 
33 34 33 1 
34 35 33 1 
35 35 34 1 
36 37 36 1 
37 38 36 1 
38 38 37 1 
39 40 39 1 
40 41 39 1 
41 41 40 1 
42 42 43 1 
43 42 44 1 
44 44 43 1 
45 46 45 1 
46 47 45 1 
47 47 46 1 
48 49 48 1 
49 50 48 1 
50 50 49 1 
51 52 51 1 
52 53 51 1 
53 53 52 1 
54 55 54 1 
55 56 54 1 
56 56 55 1 
57 58 57 1 
58 59 57 1 
59 59 58 1 
60 61 60 1 
61 62 60 1 
62 62 61 1 
63 64 63 1 
64 65 63 1 
65 65 64 1 
66 67 66 1 
67 68 66 1 
68 68 67 1 
69 70 69 1 
70 71 69 1 
71 71 70 1 
72 73 72 1 
73 74 72 1 
74 74 73 1 
75 75 77 1 
76 76 75 1 
77 76 77 1 
78 79 78 1 
79 80 78 1 
80 80 79 1 
81 82 81 1 
82 83 81 1 
83 83 82 1 
84 85 84 1 
85 86 84 1 
86 86 85 1 
87 88 87 1 
88 89 87 1 
89 89 88 1 
90 91 90 1 
91 92 90 1 
92 92 91 1 
93 93 94 1 
94 93 95 1 
95 95 94 1 
96 97 96 1 
97 98 96 1 
98 98 97 1 
99 100 99 1 
100 101 99 1 
101 101 100 1 
102 103 102 1 
103 104 102 1 
104 104 103 1 
105 106 105 1 
106 107 105 1 
107 107 106 1 
108 109 108 1 
109 110 108 1 
110 110 109 1 
111 112 111 1 
112 113 111 1 
113 113 112 1 
114 115 114 1 
115 116 114 1 
116 116 115 1 
117 118 117 1 
118 119 117 1 
119 119 118 1 
120 121 120 1 
121 122 120 1 
122 122 121 1 
123 124 123 1 
124 125 123 1 
125 125 124 1 
126 126 128 1 
127 127 126 1 
128 127 128 1 
129 130 129 1 
130 131 129 1 
131 131 130 1 
132 133 132 1 
133 134 132 1 
134 134 133 1 
135 136 135 1 
136 137 135 1 
137 137 136 1 
138 139 138 1 
139 140 138 1 
140 140 139 1 
141 142 141 1 
142 143 141 1 
143 143 142 1 
144 144 145 1 
145 144 146 1 
146 146 145 1 
147 148 147 1 
148 149 147 1 
149 149 148 1 
150 151 150 1 
151 152 150 1 
152 152 151 1 
153 154 153 1 
154 155 153 1 
155 155 154 1 
156 157 156 1 
157 158 156 1 
158 158 157 1 
159 160 159 1 
160 161 159 1 
161 161 160 1 
162 163 162 1 
163 164 162 1 
164 164 163 1 
165 166 165 1 
166 167 165 1 
167 167 166 1 
168 169 168 1 
169 170 168 1 
170 170 169 1 
171 172 171 1 
172 173 171 1 
173 173 172 1 
174 175 174 1 
175 176 174 1 
176 176 175 1 
177 177 179 1 
178 178 177 1 
179 178 179 1 
180 181 180 1 
181 182 180 1 
182 182 181 1 
183 184 183 1 
184 185 183 1 
185 185 184 1 
186 187 186 1 
187 188 186 1 
188 188 187 1 
189 190 189 1 
190 191 189 1 
191 191 190 1 
192 193 192 1 
193 194 192 1 
194 194 193 1 
195 195 196 1 
196 195 197 1 
197 197 196 1 
198 199 198 1 
199 200 198 1 
200 200 199 1 
201 202 201 1 
202 203 201 1 
203 203 202 1 
204 205 204 1 
205 206 204 1 
206 206 205 1 
207 208 207 1 
208 209 207 1 
209 209 208 1 
210 211 210 1 
211 212 210 1 
212 212 211 1 
213 214 213 1 
214 215 213 1 
215 215 214 1 
216 217 216 1 
217 218 216 1 
218 218 217 1 
219 220 219 1 
220 221 219 1 
221 221 220 1 
222 223 222 1 
223 224 222 1 
224 224 223 1 
225 226 225 1 
226 227 225 1 
227 227 226 1 
228 228 230 1 
229 229 228 1 
230 229 230 1 
231 232 231 1 
232 233 231 1 
233 233 232 1 
234 235 234 1 
235 236 234 1 
236 236 235 1 
237 238 237 1 
238 239 237 1 
239 239 238 1 
240 241 240 1 
241 242 240 1 
242 242 241 1 
243 244 243 1 
244 245 243 1 
245 245 244 1 
246 246 247 1 
247 246 248 1 
248 248 247 1 
249 250 249 1 
250 251 249 1 
251 251 250 1 
252 253 252 1 
253 254 252 1 
254 254 253 1 
255 256 255 1 
256 257 255 1 
257 257 256 1 
258 259 258 1 
259 260 258 1 
260 260 259 1 
261 262 261 1 
262 263 261 1 
263 263 262 1 
264 265 264 1 
265 266 264 1 
266 266 265 1 
267 268 267 1 
268 269 267 1 
269 269 268 1 
270 271 270 1 
271 272 270 1 
272 272 271 1 
273 274 273 1 
274 275 273 1 
275 275 274 1 
276 277 276 1 
277 278 276 1 
278 278 277 1 
279 279 281 1 
280 280 279 1 
281 280 281 1 
282 283 282 1 
283 284 282 1 
284 284 283 1 
285 286 285 1 
286 287 285 1 
287 287 286 1 
288 289 288 1 
289 290 288 1 
290 290 289 1 
291 292 291 1 
292 293 291 1 
293 293 292 1 
294 295 294 1 
295 296 294 1 
296 296 295 1 
297 297 298 1 
298 297 299 1 
299 299 298 1 
300 301 300 1 
301 302 300 1 
302 302 301 1 
303 304 303 1 
304 305 303 1 
305 305 304 1 
306 307 306 1 
307 308 306 1 
308 308 307 1 
309 310 309 1 
310 311 309 1 
311 311 310 1 
312 313 312 1 
313 314 312 1 
314 314 313 1 
315 316 315 1 
316 317 315 1 
317 317 316 1 
318 319 318 1 
319 320 318 1 
320 320 319 1 
321 322 321 1 
322 323 321 1 
323 323 322 1 
324 325 324 1 
325 326 324 1 
326 326 325 1 
327 328 327 1 
328 329 327 1 
329 329 328 1 
330 330 332 1 
331 331 330 1 
332 331 332 1 
333 334 333 1 
334 335 333 1 
335 335 334 1 
336 337 336 1 
337 338 336 1 
338 338 337 1 
339 340 339 1 
340 341 339 1 
341 341 340 1 
342 343 342 1 
343 344 342 1 
344 344 343 1 
345 346 345 1 
346 347 345 1 
347 347 346 1 
348 348 349 1 
349 348 350 1 
350 350 349 1 
351 352 351 1 
352 353 351 1 
353 353 352 1 
354 355 354 1 
355 356 354 1 
356 356 355 1 
357 358 357 1 
358 359 357 1 
359 359 358 1 
360 361 360 1 
361 362 360 1 
362 362 361 1 
363 364 363 1 
364 365 363 1 
365 365 364 1 
366 367 366 1 
367 368 366 1 
368 368 367 1 
369 370 369 1 
370 371 369 1 
371 371 370 1 
372 373 372 1 
373 374 372 1 
374 374 373 1 
375 376 375 1 
376 377 375 1 
377 377 376 1 
378 379 378 1 
379 380 378 1 
380 380 379 1 
381 381 383 1 
382 382 381 1 
383 382 383 1 
384 385 384 1 
385 386 384 1 
386 386 385 1 
387 388 387 1 
388 389 387 1 
389 389 388 1 
390 391 390 1 
391 392 390 1 
392 392 391 1 
393 394 393 1 
394 395 393 1 
395 395 394 1 
396 397 396 1 
397 398 396 1 
398 398 397 1 
399 399 400 1 
400 399 401 1 
401 401 400 1 
402 403 402 1 
403 404 402 1 
404 404 403 1 
405 406 405 1 
406 407 405 1 
407 407 406 1 
408 409 408 1 
409 410 408 1 
410 410 409 1 
411 412 411 1 
412 413 411 1 
413 413 412 1 
414 415 414 1 
415 416 414 1 
416 416 415 1 
417 418 417 1 
418 419 417 1 
419 419 418 1 
420 421 420 1 
421 422 420 1 
422 422 421 1 
423 424 423 1 
424 425 423 1 
425 425 424 1 
426 427 426 1 
427 428 426 1 
428 428 427 1 
429 430 429 1 
430 431 429 1 
431 431 430 1 
432 432 434 1 
433 433 432 1 
434 433 434 1 
435 436 435 1 
436 437 435 1 
437 437 436 1 
438 439 438 1 
439 440 438 1 
440 440 439 1 
441 442 441 1 
442 443 441 1 
443 443 442 1 
444 445 444 1 
445 446 444 1 
446 446 445 1 
447 448 447 1 
448 449 447 1 
449 449 448 1 
450 450 451 1 
451 450 452 1 
452 452 451 1 
453 454 453 1 
454 455 453 1 
455 455 454 1 
456 457 456 1 
457 458 456 1 
458 458 457 1 
459 460 459 1 
460 461 459 1 
461 461 460 1 
462 463 462 1 
463 464 462 1 
464 464 463 1 
465 466 465 1 
466 467 465 1 
467 467 466 1 
468 469 468 1 
469 470 468 1 
470 470 469 1 
471 472 471 1 
472 473 471 1 
473 473 472 1 
474 475 474 1 
475 476 474 1 
476 476 475 1 
477 478 477 1 
478 479 477 1 
479 479 478 1 
480 481 480 1 
481 482 480 1 
482 482 481 1 
483 483 485 1 
484 484 483 1 
485 484 485 1 
486 487 486 1 
487 488 486 1 
488 488 487 1 
489 490 489 1 
490 491 489 1 
491 491 490 1 
492 493 492 1 
493 494 492 1 
494 494 493 1 
495 496 495 1 
496 497 495 1 
497 497 496 1 
498 499 498 1 
499 500 498 1 
500 500 499 1 
501 501 502 1 
502 501 503 1 
503 503 502 1 
504 505 504 1 
505 506 504 1 
506 506 505 1 
507 508 507 1 
508 509 507 1 
509 509 508 1 
510 511 510 1 
511 512 510 1 
512 512 511 1 
513 514 513 1 
514 515 513 1 
515 515 514 1 
516 517 516 1 
517 518 516 1 
518 518 517 1 
519 520 519 1 
520 521 519 1 
521 521 520 1 
522 523 522 1 
523 524 522 1 
524 524 523 1 
525 526 525 1 
526 527 525 1 
527 527 526 1 
528 529 528 1 
529 530 528 1 
530 530 529 1 
531 532 531 1 
532 533 531 1 
533 533 532 1 
534 534 536 1 
535 535 534 1 
536 535 536 1 
537 538 537 1 
538 539 537 1 
539 539 538 1 
540 541 540 1 
541 542 540 1 
542 542 541 1 
543 544 543 1 
544 545 543 1 
545 545 544 1 
546 547 546 1 
547 548 546 1 
548 548 547 1 
549 550 549 1 
550 551 549 1 
551 551 550 1 
552 552 553 1 
553 552 554 1 
554 554 553 1 
555 556 555 1 
556 557 555 1 
557 557 556 1 
558 559 558 1 
559 560 558 1 
560 560 559 1 
561 562 561 1 
562 563 561 1 
563 563 562 1 
564 565 564 1 
565 566 564 1 
566 566 565 1 
567 568 567 1 
568 569 567 1 
569 569 568 1 
570 571 570 1 
571 572 570 1 
572 572 571 1 
573 574 573 1 
574 575 573 1 
575 575 574 1 
576 577 576 1 
577 578 576 1 
578 578 577 1 
579 580 579 1 
580 581 579 1 
581 581 580 1 
582 583 582 1 
583 584 582 1 
584 584 583 1 
585 585 587 1 
586 586 585 1 
587 586 587 1 
588 589 588 1 
589 590 588 1 
590 590 589 1 
591 592 591 1 
592 593 591 1 
593 593 592 1 
594 595 594 1 
595 596 594 1 
596 596 595 1 
597 598 597 1 
598 599 597 1 
599 599 598 1 
600 601 600 1 
601 602 600 1 
602 602 601 1 
603 603 604 1 
604 603 605 1 
605 605 604 1 
606 607 606 1 
607 608 606 1 
608 608 607 1 
609 610 609 1 
610 611 609 1 
611 611 610 1 
612 613 612 1 
613 614 612 1 
614 614 613 1 
615 616 615 1 
616 617 615 1 
617 617 616 1 
618 619 618 1 
619 620 618 1 
620 620 619 1 
621 622 621 1 
622 623 621 1 
623 623 622 1 
624 625 624 1 
625 626 624 1 
626 626 625 1 
627 628 627 1 
628 629 627 1 
629 629 628 1 
630 631 630 1 
631 632 630 1 
632 632 631 1 
633 634 633 1 
634 635 633 1 
635 635 634 1 
636 636 638 1 
637 637 636 1 
638 637 638 1 
639 640 639 1 
640 641 639 1 
641 641 640 1 
642 643 642 1 
643 644 642 1 
644 644 643 1 
645 646 645 1 
646 647 645 1 
647 647 646 1 
648 649 648 1 
649 650 648 1 
650 650 649 1 
651 652 651 1 
652 653 651 1 
653 653 652 1 
654 654 655 1 
655 654 656 1 
656 656 655 1 
657 658 657 1 
658 659 657 1 
659 659 658 1 
660 661 660 1 
661 662 660 1 
662 662 661 1 
663 664 663 1 
664 665 663 1 
665 665 664 1 
666 667 666 1 
667 668 666 1 
668 668 667 1 
669 670 669 1 
670 671 669 1 
671 671 670 1 
672 673 672 1 
673 674 672 1 
674 674 673 1 
675 676 675 1 
676 677 675 1 
677 677 676 1 
678 679 678 1 
679 680 678 1 
680 680 679 1 
681 682 681 1 
682 683 681 1 
683 683 682 1 
684 685 684 1 
685 686 684 1 
686 686 685 1 
687 687 689 1 
688 688 687 1 
689 688 689 1 
690 691 690 1 
691 692 690 1 
692 692 691 1 
693 694 693 1 
694 695 693 1 
695 695 694 1 
696 697 696 1 
697 698 696 1 
698 698 697 1 
699 700 699 1 
700 701 699 1 
701 701 700 1 
702 703 702 1 
703 704 702 1 
704 704 703 1 
705 705 706 1 
706 705 707 1 
707 707 706 1 
708 709 708 1 
709 710 708 1 
710 710 709 1 
711 712 711 1 
712 713 711 1 
713 713 712 1 
714 715 714 1 
715 716 714 1 
716 716 715 1 
717 718 717 1 
718 719 717 1 
719 719 718 1 
720 721 720 1 
721 722 720 1 
722 722 721 1 
723 724 723 1 
724 725 723 1 
725 725 724 1 
726 727 726 1 
727 728 726 1 
728 728 727 1 
729 730 729 1 
730 731 729 1 
731 731 730 1 
732 733 732 1 
733 734 732 1 
734 734 733 1 
735 736 735 1 
736 737 735 1 
737 737 736 1 
738 738 740 1 
739 739 738 1 
740 739 740 1 
741 742 741 1 
742 743 741 1 
743 743 742 1 
744 745 744 1 
745 746 744 1 
746 746 745 1 
747 748 747 1 
748 749 747 1 
749 749 748 1 
750 751 750 1 
751 752 750 1 
752 752 751 1 
753 754 753 1 
754 755 753 1 
755 755 754 1 
756 756 757 1 
757 756 758 1 
758 758 757 1 
759 760 759 1 
760 761 759 1 
761 761 760 1 
762 763 762 1 
763 764 762 1 
764 764 763 1 
765 766 765 1 
766 767 765 1 
767 767 766 1 
768 769 768 1 
769 770 768 1 
770 770 769 1 
771 772 771 1 
772 773 771 1 
773 773 772 1 
774 775 774 1 
775 776 774 1 
776 776 775 1 
777 778 777 1 
778 779 777 1 
779 779 778 1 
780 781 780 1 
781 782 780 1 
782 782 781 1 
783 784 783 1 
784 785 783 1 
785 785 784 1 
786 787 786 1 
787 788 786 1 
788 788 787 1 
789 789 791 1 
790 790 789 1 
791 790 791 1 
792 793 792 1 
793 794 792 1 
794 794 793 1 
795 796 795 1 
796 797 795 1 
797 797 796 1 
798 799 798 1 
799 800 798 1 
800 800 799 1 
801 802 801 1 
802 803 801 1 
803 803 802 1 
804 805 804 1 
805 806 804 1 
806 806 805 1 
807 807 808 1 
808 807 809 1 
809 809 808 1 
810 811 810 1 
811 812 810 1 
812 812 811 1 
813 814 813 1 
814 815 813 1 
815 815 814 1 
816 817 816 1 
817 818 816 1 
818 818 817 1 
819 820 819 1 
820 821 819 1 
821 821 820 1 
822 823 822 1 
823 824 822 1 
824 824 823 1 
825 826 825 1 
826 827 825 1 
827 827 826 1 
828 829 828 1 
829 830 828 1 
830 830 829 1 
831 832 831 1 
832 833 831 1 
833 833 832 1 
834 835 834 1 
835 836 834 1 
836 836 835 1 
837 838 837 1 
838 839 837 1 
839 839 838 1 
840 840 842 1 
841 841 840 1 
842 841 842 1 
843 844 843 1 
844 845 843 1 
845 845 844 1 
846 847 846 1 
847 848 846 1 
848 848 847 1 
849 850 849 1 
850 851 849 1 
851 851 850 1 
852 853 852 1 
853 854 852 1 
854 854 853 1 
855 856 855 1 
856 857 855 1 
857 857 856 1 
858 858 859 1 
859 858 860 1 
860 860 859 1 
861 862 861 1 
862 863 861 1 
863 863 862 1 
864 865 864 1 
865 866 864 1 
866 866 865 1 
867 868 867 1 
868 869 867 1 
869 869 868 1 
870 871 870 1 
871 872 870 1 
872 872 871 1 
873 874 873 1 
874 875 873 1 
875 875 874 1 
876 877 876 1 
877 878 876 1 
878 878 877 1 
879 880 879 1 
880 881 879 1 
881 881 880 1 
882 883 882 1 
883 884 882 1 
884 884 883 1 
885 886 885 1 
886 887 885 1 
887 887 886 1 
888 889 888 1 
889 890 888 1 
890 890 889 1 
891 892 891 1 
892 893 891 1 
893 893 892 1 
894 895 894 1 
895 896 894 1 
896 896 895 1 
897 898 897 1 
898 899 897 1 
899 899 898 1 
900 901 900 1 
901 902 900 1 
902 902 901 1 
903 904 903 1 
904 905 903 1 
905 905 904 1 
906 907 906 1 
907 908 906 1 
908 908 907 1 
909 909 910 1 
910 909 911 1 
911 911 910 1 
912 913 912 1 
913 914 912 1 
914 914 913 1 
915 916 915 1 
916 917 915 1 
917 917 916 1 
918 919 918 1 
919 920 918 1 
920 920 919 1 
921 922 921 1 
922 923 921 1 
923 923 922 1 
924 925 924 1 
925 926 924 1 
926 926 925 1 
927 928 927 1 
928 929 927 1 
929 929 928 1 
930 931 930 1 
931 932 930 1 
932 932 931 1 
933 934 933 1 
934 935 933 1 
935 935 934 1 
936 937 936 1 
937 938 936 1 
938 938 937 1 
939 940 939 1 
940 941 939 1 
941 941 940 1 
942 942 944 1 
943 943 942 1 
944 943 944 1 
945 946 945 1 
946 947 945 1 
947 947 946 1 
948 949 948 1 
949 950 948 1 
950 950 949 1 
951 952 951 1 
952 953 951 1 
953 953 952 1 
954 955 954 1 
955 956 954 1 
956 956 955 1 
957 958 957 1 
958 959 957 1 
959 959 958 1 
960 960 961 1 
961 960 962 1 
962 962 961 1 
963 964 963 1 
964 965 963 1 
965 965 964 1 
966 967 966 1 
967 968 966 1 
968 968 967 1 
969 970 969 1 
970 971 969 1 
971 971 970 1 
972 973 972 1 
973 974 972 1 
974 974 973 1 
975 976 975 1 
976 977 975 1 
977 977 976 1 
978 979 978 1 
979 980 978 1 
980 980 979 1 
981 982 981 1 
982 983 981 1 
983 983 982 1 
984 985 984 1 
985 986 984 1 
986 986 985 1 
987 988 987 1 
988 989 987 1 
989 989 988 1 
990 991 990 1 
991 992 990 1 
992 992 991 1 
993 993 995 1 
994 994 993 1 
995 994 995 1 
996 997 996 1 
997 998 996 1 
998 998 997 1 
999 1000 999 1 
1000 1001 999 1 
1001 1001 1000 1 
1002 1003 1002 1 
1003 1004 1002 1 
1004 1004 1003 1 
1005 1006 1005 1 
1006 1007 1005 1 
1007 1007 1006 1 
1008 1009 1008 1 
1009 1010 1008 1 
1010 1010 1009 1 
1011 1011 1012 1 
1012 1011 1013 1 
1013 1013 1012 1 
1014 1015 1014 1 
1015 1016 1014 1 
1016 1016 1015 1 
1017 1018 1017 1 
1018 1019 1017 1 
1019 1019 1018 1 
1020 1021 1020 1 
1021 1022 1020 1 
1022 1022 1021 1 
1023 1024 1023 1 
1024 1025 1023 1 
1025 1025 1024 1 
1026 1027 1026 1 
1027 1028 1026 1 
1028 1028 1027 1 
1029 1030 1029 1 
1030 1031 1029 1 
1031 1031 1030 1 
1032 1033 1032 1 
1033 1034 1032 1 
1034 1034 1033 1 
1035 1036 1035 1 
1036 1037 1035 1 
1037 1037 1036 1 
1038 1039 1038 1 
1039 1040 1038 1 
1040 1040 1039 1 
1041 1042 1041 1 
1042 1043 1041 1 
1043 1043 1042 1 
1044 1044 1046 1 
1045 1045 1044 1 
1046 1045 1046 1 
1047 1048 1047 1 
1048 1049 1047 1 
1049 1049 1048 1 
1050 1051 1050 1 
1051 1052 1050 1 
1052 1052 1051 1 
1053 1054 1053 1 
1054 1055 1053 1 
1055 1055 1054 1 
1056 1057 1056 1 
1057 1058 1056 1 
1058 1058 1057 1 
1059 1060 1059 1 
1060 1061 1059 1 
1061 1061 1060 1 
1062 1062 1063 1 
1063 1062 1064 1 
1064 1064 1063 1 
1065 1066 1065 1 
1066 1067 1065 1 
1067 1067 1066 1 
1068 1069 1068 1 
1069 1070 1068 1 
1070 1070 1069 1 
1071 1072 1071 1 
1072 1073 1071 1 
1073 1073 1072 1 
1074 1075 1074 1 
1075 1076 1074 1 
1076 1076 1075 1 
1077 1078 1077 1 
1078 1079 1077 1 
1079 1079 1078 1 
1080 1081 1080 1 
1081 1082 1080 1 
1082 1082 1081 1 
1083 1084 1083 1 
1084 1085 1083 1 
1085 1085 1084 1 
1086 1087 1086 1 
1087 1088 1086 1 
1088 1088 1087 1 
1089 1090 1089 1 
1090 1091 1089 1 
1091 1091 1090 1 
1092 1093 1092 1 
1093 1094 1092 1 
1094 1094 1093 1 
1095 1095 1097 1 
1096 1096 1095 1 
1097 1096 1097 1 
1098 1099 1098 1 
1099 1100 1098 1 
1100 1100 1099 1 
1101 1102 1101 1 
1102 1103 1101 1 
1103 1103 1102 1 
1104 1105 1104 1 
1105 1106 1104 1 
1106 1106 1105 1 
1107 1108 1107 1 
1108 1109 1107 1 
1109 1109 1108 1 
1110 1111 1110 1 
1111 1112 1110 1 
1112 1112 1111 1 
1113 1113 1114 1 
1114 1113 1115 1 
1115 1115 1114 1 
1116 1117 1116 1 
1117 1118 1116 1 
1118 1118 1117 1 
1119 1120 1119 1 
1120 1121 1119 1 
1121 1121 1120 1 
1122 1123 1122 1 
1123 1124 1122 1 
1124 1124 1123 1 
1125 1126 1125 1 
1126 1127 1125 1 
1127 1127 1126 1 
1128 1129 1128 1 
1129 1130 1128 1 
1130 1130 1129 1 
1131 1132 1131 1 
1132 1133 1131 1 
1133 1133 1132 1 
1134 1135 1134 1 
1135 1136 1134 1 
1136 1136 1135 1 
1137 1138 1137 1 
1138 1139 1137 1 
1139 1139 1138 1 
1140 1141 1140 1 
1141 1142 1140 1 
1142 1142 1141 1 
1143 1144 1143 1 
1144 1145 1143 1 
1145 1145 1144 1 
1146 1146 1148 1 
1147 1147 1146 1 
1148 1147 1148 1 
1149 1150 1149 1 
1150 1151 1149 1 
1151 1151 1150 1 
1152 1153 1152 1 
1153 1154 1152 1 
1154 1154 1153 1 
1155 1156 1155 1 
1156 1157 1155 1 
1157 1157 1156 1 
1158 1159 1158 1 
1159 1160 1158 1 
1160 1160 1159 1 
1161 1162 1161 1 
1162 1163 1161 1 
1163 1163 1162 1 
1164 1164 1165 1 
1165 1164 1166 1 
1166 1166 1165 1 
1167 1168 1167 1 
1168 1169 1167 1 
1169 1169 1168 1 
1170 1171 1170 1 
1171 1172 1170 1 
1172 1172 1171 1 
1173 1174 1173 1 
1174 1175 1173 1 
1175 1175 1174 1 
1176 1177 1176 1 
1177 1178 1176 1 
1178 1178 1177 1 
1179 1180 1179 1 
1180 1181 1179 1 
1181 1181 1180 1 
1182 1183 1182 1 
1183 1184 1182 1 
1184 1184 1183 1 
1185 1186 1185 1 
1186 1187 1185 1 
1187 1187 1186 1 
1188 1189 1188 1 
1189 1190 1188 1 
1190 1190 1189 1 
1191 1192 1191 1 
1192 1193 1191 1 
1193 1193 1192 1 
1194 1195 1194 1 
1195 1196 1194 1 
1196 1196 1195 1 
1197 1197 1199 1 
1198 1198 1197 1 
1199 1198 1199 1 
1200 1201 1200 1 
1201 1202 1200 1 
1202 1202 1201 1 
1203 1204 1203 1 
1204 1205 1203 1 
1205 1205 1204 1 
1206 1207 1206 1 
1207 1208 1206 1 
1208 1208 1207 1 
1209 1210 1209 1 
1210 1211 1209 1 
1211 1211 1210 1 
1212 1213 1212 1 
1213 1214 1212 1 
1214 1214 1213 1 
1215 1215 1216 1 
1216 1215 1217 1 
1217 1217 1216 1 
1218 1219 1218 1 
1219 1220 1218 1 
1220 1220 1219 1 
1221 1222 1221 1 
1222 1223 1221 1 
1223 1223 1222 1 
1224 1225 1224 1 
1225 1226 1224 1 
1226 1226 1225 1 
1227 1228 1227 1 
1228 1229 1227 1 
1229 1229 1228 1 
1230 1231 1230 1 
1231 1232 1230 1 
1232 1232 1231 1 
1233 1234 1233 1 
1234 1235 1233 1 
1235 1235 1234 1 
1236 1237 1236 1 
1237 1238 1236 1 
1238 1238 1237 1 
1239 1240 1239 1 
1240 1241 1239 1 
1241 1241 1240 1 
1242 1243 1242 1 
1243 1244 1242 1 
1244 1244 1243 1 
1245 1246 1245 1 
1246 1247 1245 1 
1247 1247 1246 1 
1248 1248 1250 1 
1249 1249 1248 1 
1250 1249 1250 1 
1251 1252 1251 1 
1252 1253 1251 1 
1253 1253 1252 1 
1254 1255 1254 1 
1255 1256 1254 1 
1256 1256 1255 1 
1257 1258 1257 1 
1258 1259 1257 1 
1259 1259 1258 1 
1260 1261 1260 1 
1261 1262 1260 1 
1262 1262 1261 1 
1263 1264 1263 1 
1264 1265 1263 1 
1265 1265 1264 1 
1266 1266 1267 1 
1267 1266 1268 1 
1268 1268 1267 1 
1269 1270 1269 1 
1270 1271 1269 1 
1271 1271 1270 1 
1272 1273 1272 1 
1273 1274 1272 1 
1274 1274 1273 1 
1275 1276 1275 1 
1276 1277 1275 1 
1277 1277 1276 1 
1278 1279 1278 1 
1279 1280 1278 1 
1280 1280 1279 1 
1281 1282 1281 1 
1282 1283 1281 1 
1283 1283 1282 1 
1284 1285 1284 1 
1285 1286 1284 1 
1286 1286 1285 1 
1287 1288 1287 1 
1288 1289 1287 1 
1289 1289 1288 1 
1290 1291 1290 1 
1291 1292 1290 1 
1292 1292 1291 1 
1293 1294 1293 1 
1294 1295 1293 1 
1295 1295 1294 1 
1296 1297 1296 1 
1297 1298 1296 1 
1298 1298 1297 1 
1299 1299 1301 1 
1300 1300 1299 1 
1301 1300 1301 1 
1302 1303 1302 1 
1303 1304 1302 1 
1304 1304 1303 1 
1305 1306 1305 1 
1306 1307 1305 1 
1307 1307 1306 1 
1308 1309 1308 1 
1309 1310 1308 1 
1310 1310 1309 1 
1311 1312 1311 1 
1312 1313 1311 1 
1313 1313 1312 1 
1314 1315 1314 1 
1315 1316 1314 1 
1316 1316 1315 1 
1317 1317 1318 1 
1318 1317 1319 1 
1319 1319 1318 1 
1320 1321 1320 1 
1321 1322 1320 1 
1322 1322 1321 1 
1323 1324 1323 1 
1324 1325 1323 1 
1325 1325 1324 1 
1326 1327 1326 1 
1327 1328 1326 1 
1328 1328 1327 1 
1329 1330 1329 1 
1330 1331 1329 1 
1331 1331 1330 1 
1332 1333 1332 1 
1333 1334 1332 1 
1334 1334 1333 1 
1335 1336 1335 1 
1336 1337 1335 1 
1337 1337 1336 1 
1338 1339 1338 1 
1339 1340 1338 1 
1340 1340 1339 1 
1341 1342 1341 1 
1342 1343 1341 1 
1343 1343 1342 1 
1344 1345 1344 1 
1345 1346 1344 1 
1346 1346 1345 1 
1347 1348 1347 1 
1348 1349 1347 1 
1349 1349 1348 1 
1350 1350 1352 1 
1351 1351 1350 1 
1352 1351 1352 1 
1353 1354 1353 1 
1354 1355 1353 1 
1355 1355 1354 1 
1356 1357 1356 1 
1357 1358 1356 1 
1358 1358 1357 1 
1359 1360 1359 1 
1360 1361 1359 1 
1361 1361 1360 1 
1362 1363 1362 1 
1363 1364 1362 1 
1364 1364 1363 1 
1365 1366 1365 1 
1366 1367 1365 1 
1367 1367 1366 1 
1368 1368 1369 1 
1369 1368 1370 1 
1370 1370 1369 1 
1371 1372 1371 1 
1372 1373 1371 1 
1373 1373 1372 1 
1374 1375 1374 1 
1375 1376 1374 1 
1376 1376 1375 1 
1377 1378 1377 1 
1378 1379 1377 1 
1379 1379 1378 1 
1380 1381 1380 1 
1381 1382 1380 1 
1382 1382 1381 1 
1383 1384 1383 1 
1384 1385 1383 1 
1385 1385 1384 1 
1386 1387 1386 1 
1387 1388 1386 1 
1388 1388 1387 1 
1389 1390 1389 1 
1390 1391 1389 1 
1391 1391 1390 1 
1392 1393 1392 1 
1393 1394 1392 1 
1394 1394 1393 1 
1395 1396 1395 1 
1396 1397 1395 1 
1397 1397 1396 1 
1398 1399 1398 1 
1399 1400 1398 1 
1400 1400 1399 1 
1401 1401 1403 1 
1402 1402 1401 1 
1403 1402 1403 1 
1404 1405 1404 1 
1405 1406 1404 1 
1406 1406 1405 1 
1407 1408 1407 1 
1408 1409 1407 1 
1409 1409 1408 1 
1410 1411 1410 1 
1411 1412 1410 1 
1412 1412 1411 1 
1413 1414 1413 1 
1414 1415 1413 1 
1415 1415 1414 1 
1416 1417 1416 1 
1417 1418 1416 1 
1418 1418 1417 1 
1419 1419 1420 1 
1420 1419 1421 1 
1421 1421 1420 1 
1422 1423 1422 1 
1423 1424 1422 1 
1424 1424 1423 1 
1425 1426 1425 1 
1426 1427 1425 1 
1427 1427 1426 1 
1428 1429 1428 1 
1429 1430 1428 1 
1430 1430 1429 1 
1431 1432 1431 1 
1432 1433 1431 1 
1433 1433 1432 1 
1434 1435 1434 1 
1435 1436 1434 1 
1436 1436 1435 1 
1437 1438 1437 1 
1438 1439 1437 1 
1439 1439 1438 1 
1440 1441 1440 1 
1441 1442 1440 1 
1442 1442 1441 1 
1443 1444 1443 1 
1444 1445 1443 1 
1445 1445 1444 1 
1446 1447 1446 1 
1447 1448 1446 1 
1448 1448 1447 1 
1449 1450 1449 1 
1450 1451 1449 1 
1451 1451 1450 1 
1452 1452 1454 1 
1453 1453 1452 1 
1454 1453 1454 1 
1455 1456 1455 1 
1456 1457 1455 1 
1457 1457 1456 1 
1458 1459 1458 1 
1459 1460 1458 1 
1460 1460 1459 1 
1461 1462 1461 1 
1462 1463 1461 1 
1463 1463 1462 1 
1464 1465 1464 1 
1465 1466 1464 1 
1466 1466 1465 1 
1467 1468 1467 1 
1468 1469 1467 1 
1469 1469 1468 1 
1470 1470 1471 1 
1471 1470 1472 1 
1472 1472 1471 1 
1473 1474 1473 1 
1474 1475 1473 1 
1475 1475 1474 1 
1476 1477 1476 1 
1477 1478 1476 1 
1478 1478 1477 1 
1479 1480 1479 1 
1480 1481 1479 1 
1481 1481 1480 1 
1482 1483 1482 1 
1483 1484 1482 1 
1484 1484 1483 1 
1485 1486 1485 1 
1486 1487 1485 1 
1487 1487 1486 1 
1488 1489 1488 1 
1489 1490 1488 1 
1490 1490 1489 1 
1491 1492 1491 1 
1492 1493 1491 1 
1493 1493 1492 1 
1494 1495 1494 1 
1495 1496 1494 1 
1496 1496 1495 1 
1497 1498 1497 1 
1498 1499 1497 1 
1499 1499 1498 1 
1500 1501 1500 1 
1501 1502 1500 1 
1502 1502 1501 1 
1503 1503 1505 1 
1504 1504 1503 1 
1505 1504 1505 1 
1506 1507 1506 1 
1507 1508 1506 1 
1508 1508 1507 1 
1509 1510 1509 1 
1510 1511 1509 1 
1511 1511 1510 1 
1512 1513 1512 1 
1513 1514 1512 1 
1514 1514 1513 1 
1515 1516 1515 1 
1516 1517 1515 1 
1517 1517 1516 1 
1518 1519 1518 1 
1519 1520 1518 1 
1520 1520 1519 1 
1521 1521 1522 1 
1522 1521 1523 1 
1523 1523 1522 1 
1524 1525 1524 1 
1525 1526 1524 1 
1526 1526 1525 1 
1527 1528 1527 1 
1528 1529 1527 1 
1529 1529 1528 1 
1530 1531 1530 1 
1531 1532 1530 1 
1532 1532 1531 1 
1533 1534 1533 1 
1534 1535 1533 1 
1535 1535 1534 1 
1536 1537 1536 1 
1537 1538 1536 1 
1538 1538 1537 1 
1539 1540 1539 1 
1540 1541 1539 1 
1541 1541 1540 1 
1542 1543 1542 1 
1543 1544 1542 1 
1544 1544 1543 1 
1545 1546 1545 1 
1546 1547 1545 1 
1547 1547 1546 1 
1548 1549 1548 1 
1549 1550 1548 1 
1550 1550 1549 1 
1551 1552 1551 1 
1552 1553 1551 1 
1553 1553 1552 1 
1554 1554 1556 1 
1555 1555 1554 1 
1556 1555 1556 1 
1557 1558 1557 1 
1558 1559 1557 1 
1559 1559 1558 1 
1560 1561 1560 1 
1561 1562 1560 1 
1562 1562 1561 1 
1563 1564 1563 1 
1564 1565 1563 1 
1565 1565 1564 1 
1566 1567 1566 1 
1567 1568 1566 1 
1568 1568 1567 1 
1569 1570 1569 1 
1570 1571 1569 1 
1571 1571 1570 1 
1572 1572 1573 1 
1573 1572 1574 1 
1574 1574 1573 1 
1575 1576 1575 1 
1576 1577 1575 1 
1577 1577 1576 1 
1578 1579 1578 1 
1579 1580 1578 1 
1580 1580 1579 1 
1581 1582 1581 1 
1582 1583 1581 1 
1583 1583 1582 1 
1584 1585 1584 1 
1585 1586 1584 1 
1586 1586 1585 1 
1587 1588 1587 1 
1588 1589 1587 1 
1589 1589 1588 1 
1590 1591 1590 1 
1591 1592 1590 1 
1592 1592 1591 1 
1593 1594 1593 1 
1594 1595 1593 1 
1595 1595 1594 1 
1596 1597 1596 1 
1597 1598 1596 1 
1598 1598 1597 1 
1599 1600 1599 1 
1600 1601 1599 1 
1601 1601 1600 1 
1602 1603 1602 1 
1603 1604 1602 1 
1604 1604 1603 1 
1605 1605 1607 1 
1606 1606 1605 1 
1607 1606 1607 1 
1608 1609 1608 1 
1609 1610 1608 1 
1610 1610 1609 1 
1611 1612 1611 1 
1612 1613 1611 1 
1613 1613 1612 1 
1614 1615 1614 1 
1615 1616 1614 1 
1616 1616 1615 1 
1617 1618 1617 1 
1618 1619 1617 1 
1619 1619 1618 1 
1620 1621 1620 1 
1621 1622 1620 1 
1622 1622 1621 1 
1623 1623 1624 1 
1624 1623 1625 1 
1625 1625 1624 1 
1626 1627 1626 1 
1627 1628 1626 1 
1628 1628 1627 1 
1629 1630 1629 1 
1630 1631 1629 1 
1631 1631 1630 1 
1632 1633 1632 1 
1633 1634 1632 1 
1634 1634 1633 1 
1635 1636 1635 1 
1636 1637 1635 1 
1637 1637 1636 1 
1638 1639 1638 1 
1639 1640 1638 1 
1640 1640 1639 1 
1641 1642 1641 1 
1642 1643 1641 1 
1643 1643 1642 1 
1644 1645 1644 1 
1645 1646 1644 1 
1646 1646 1645 1 
1647 1648 1647 1 
1648 1649 1647 1 
1649 1649 1648 1 
1650 1651 1650 1 
1651 1652 1650 1 
1652 1652 1651 1 
1653 1654 1653 1 
1654 1655 1653 1 
1655 1655 1654 1 
1656 1656 1658 1 
1657 1657 1656 1 
1658 1657 1658 1 
1659 1660 1659 1 
1660 1661 1659 1 
1661 1661 1660 1 
1662 1663 1662 1 
1663 1664 1662 1 
1664 1664 1663 1 
1665 1666 1665 1 
1666 1667 1665 1 
1667 1667 1666 1 
1668 1669 1668 1 
1669 1670 1668 1 
1670 1670 1669 1 
1671 1672 1671 1 
1672 1673 1671 1 
1673 1673 1672 1 
1674 1674 1675 1 
1675 1674 1676 1 
1676 1676 1675 1 
1677 1678 1677 1 
1678 1679 1677 1 
1679 1679 1678 1 
1680 1681 1680 1 
1681 1682 1680 1 
1682 1682 1681 1 
1683 1684 1683 1 
1684 1685 1683 1 
1685 1685 1684 1 
1686 1687 1686 1 
1687 1688 1686 1 
1688 1688 1687 1 
1689 1690 1689 1 
1690 1691 1689 1 
1691 1691 1690 1 
1692 1693 1692 1 
1693 1694 1692 1 
1694 1694 1693 1 
1695 1696 1695 1 
1696 1697 1695 1 
1697 1697 1696 1 
1698 1699 1698 1 
1699 1700 1698 1 
1700 1700 1699 1 
1701 1702 1701 1 
1702 1703 1701 1 
1703 1703 1702 1 
1704 1705 1704 1 
1705 1706 1704 1 
1706 1706 1705 1 
1707 1707 1709 1 
1708 1708 1707 1 
1709 1708 1709 1 
1710 1711 1710 1 
1711 1712 1710 1 
1712 1712 1711 1 
1713 1714 1713 1 
1714 1715 1713 1 
1715 1715 1714 1 
1716 1717 1716 1 
1717 1718 1716 1 
1718 1718 1717 1 
1719 1720 1719 1 
1720 1721 1719 1 
1721 1721 1720 1 
1722 1723 1722 1 
1723 1724 1722 1 
1724 1724 1723 1 
1725 1726 1725 1 
1726 1727 1725 1 
1727 1727 1726 1 
1728 1729 1728 1 
1729 1730 1728 1 
1730 1730 1729 1 
1731 1732 1731 1 
1732 1733 1731 1 
1733 1733 1732 1 
1734 1735 1734 1 
1735 1736 1734 1 
1736 1736 1735 1 
1737 1738 1737 1 
1738 1739 1737 1 
1739 1739 1738 1 
1740 1741 1740 1 
1741 1742 1740 1 
1742 1742 1741 1 
1743 1744 1743 1 
1744 1745 1743 1 
1745 1745 1744 1 
1746 1747 1746 1 
1747 1748 1746 1 
1748 1748 1747 1 
1749 1750 1749 1 
1750 1751 1749 1 
1751 1751 1750 1 
1752 1753 1752 1 
1753 1754 1752 1 
1754 1754 1753 1 
1755 1756 1755 1 
1756 1757 1755 1 
1757 1757 1756 1 
1758 1758 1760 1 
1759 1759 1758 1 
1760 1759 1760 1 
1761 1762 1761 1 
1762 1763 1761 1 
1763 1763 1762 1 
1764 1765 1764 1 
1765 1766 1764 1 
1766 1766 1765 1 
1767 1768 1767 1 
1768 1769 1767 1 
1769 1769 1768 1 
1770 1771 1770 1 
1771 1772 1770 1 
1772 1772 1771 1 
1773 1774 1773 1 
1774 1775 1773 1 
1775 1775 1774 1 
1776 1776 1777 1 
1777 1776 1778 1 
1778 1778 1777 1 
1779 1780 1779 1 
1780 1781 1779 1 
1781 1781 1780 1 
1782 1783 1782 1 
1783 1784 1782 1 
1784 1784 1783 1 
1785 1786 1785 1 
1786 1787 1785 1 
1787 1787 1786 1 
1788 1789 1788 1 
1789 1790 1788 1 
1790 1790 1789 1 
1791 1792 1791 1 
1792 1793 1791 1 
1793 1793 1792 1 
1794 1795 1794 1 
1795 1796 1794 1 
1796 1796 1795 1 
1797 1798 1797 1 
1798 1799 1797 1 
1799 1799 1798 1 
1800 1801 1800 1 
1801 1802 1800 1 
1802 1802 1801 1 
1803 1804 1803 1 
1804 1805 1803 1 
1805 1805 1804 1 
1806 1807 1806 1 
1807 1808 1806 1 
1808 1808 1807 1 
1809 1809 1811 1 
1810 1810 1809 1 
1811 1810 1811 1 
1812 1813 1812 1 
1813 1814 1812 1 
1814 1814 1813 1 
1815 1816 1815 1 
1816 1817 1815 1 
1817 1817 1816 1 
1818 1819 1818 1 
1819 1820 1818 1 
1820 1820 1819 1 
1821 1822 1821 1 
1822 1823 1821 1 
1823 1823 1822 1 
1824 1825 1824 1 
1825 1826 1824 1 
1826 1826 1825 1 
1827 1827 1828 1 
1828 1827 1829 1 
1829 1829 1828 1 
1830 1831 1830 1 
1831 1832 1830 1 
1832 1832 1831 1 
@<TRIPOS>SUBSTRUCTURE
1 COR_1 1 RESIDUE 1 **** COR 1
2 COR_2 14 RESIDUE 1 **** COR 1
3 WAT_3 27 RESIDUE 1 **** WAT 1
4 WAT_4 30 RESIDUE 1 **** WAT 1
5 WAT_5 33 RESIDUE 1 **** WAT 1
6 WAT_6 36 RESIDUE 1 **** WAT 1
7 WAT_7 39 RESIDUE 1 **** WAT 1
8 WAT_8 42 RESIDUE 1 **** WAT 1
9 WAT_9 45 RESIDUE 1 **** WAT 1
10 WAT_10 48 RESIDUE 1 **** WAT 1
11 WAT_11 51 RESIDUE 1 **** WAT 1
12 WAT_12 54 RESIDUE 1 **** WAT 1
13 WAT_13 57 RESIDUE 1 **** WAT 1
14 WAT_14 60 RESIDUE 1 **** WAT 1
15 WAT_15 63 RESIDUE 1 **** WAT 1
16 WAT_16 66 RESIDUE 1 **** WAT 1
17 WAT_17 69 RESIDUE 1 **** WAT 1
18 WAT_18 72 RESIDUE 1 **** WAT 1
19 WAT_19 75 RESIDUE 1 **** WAT 1
20 WAT_20 78 RESIDUE 1 **** WAT 1
21 WAT_21 81 RESIDUE 1 **** WAT 1
22 WAT_22 84 RESIDUE 1 **** WAT 1
23 WAT_23 87 RESIDUE 1 **** WAT 1
24 WAT_24 90 RESIDUE 1 **** WAT 1
25 WAT_25 93 RESIDUE 1 **** WAT 1
26 WAT_26 96 RESIDUE 1 **** WAT 1
27 WAT_27 99 RESIDUE 1 **** WAT 1
28 WAT_28 102 RESIDUE 1 **** WAT 1
29 WAT_29 105 RESIDUE 1 **** WAT 1
30 WAT_30 108 RESIDUE 1 **** WAT 1
31 WAT_31 111 RESIDUE 1 **** WAT 1
32 WAT_32 114 RESIDUE 1 **** WAT 1
33 WAT_33 117 RESIDUE 1 **** WAT 1
34 WAT_34 120 RESIDUE 1 **** WAT 1
35 WAT_35 123 RESIDUE 1 **** WAT 1
36 WAT_36 126 RESIDUE 1 **** WAT 1
37 WAT_37 129 RESIDUE 1 **** WAT 1
38 WAT_38 132 RESIDUE 1 **** WAT 1
39 WAT_39 135 RESIDUE 1 **** WAT 1
40 WAT_40 138 RESIDUE 1 **** WAT 1
41 WAT_41 141 RESIDUE 1 **** WAT 1
42 WAT_42 144 RESIDUE 1 **** WAT 1
43 WAT_43 147 RESIDUE 1 **** WAT 1
44 WAT_44 150 RESIDUE 1 **** WAT 1
45 WAT_45 153 RESIDUE 1 **** WAT 1
46 WAT_46 156 RESIDUE 1 **** WAT 1
47 WAT_47 159 RESIDUE 1 **** WAT 1
48 WAT_48 162 RESIDUE 1 **** WAT 1
49 WAT_49 165 RESIDUE 1 **** WAT 1
50 WAT_50 168 RESIDUE 1 **** WAT 1
51 WAT_51 171 RESIDUE 1 **** WAT 1
52 WAT_52 174 RESIDUE 1 **** WAT 1
53 WAT_53 177 RESIDUE 1 **** WAT 1
54 WAT_54 180 RESIDUE 1 **** WAT 1
55 WAT_55 183 RESIDUE 1 **** WAT 1
56 WAT_56 186 RESIDUE 1 **** WAT 1
57 WAT_57 189 RESIDUE 1 **** WAT 1
58 WAT_58 192 RESIDUE 1 **** WAT 1
59 WAT_59 195 RESIDUE 1 **** WAT 1
60 WAT_60 198 RESIDUE 1 **** WAT 1
61 WAT_61 201 RESIDUE 1 **** WAT 1
62 WAT_62 204 RESIDUE 1 **** WAT 1
63 WAT_63 207 RESIDUE 1 **** WAT 1
64 WAT_64 210 RESIDUE 1 **** WAT 1
65 WAT_65 213 RESIDUE 1 **** WAT 1
66 WAT_66 216 RESIDUE 1 **** WAT 1
67 WAT_67 219 RESIDUE 1 **** WAT 1
68 WAT_68 222 RESIDUE 1 **** WAT 1
69 WAT_69 225 RESIDUE 1 **** WAT 1
70 WAT_70 228 RESIDUE 1 **** WAT 1
71 WAT_71 231 RESIDUE 1 **** WAT 1
72 WAT_72 234 RESIDUE 1 **** WAT 1
73 WAT_73 237 RESIDUE 1 **** WAT 1
74 WAT_74 240 RESIDUE 1 **** WAT 1
75 WAT_75 243 RESIDUE 1 **** WAT 1
76 WAT_76 246 RESIDUE 1 **** WAT 1
77 WAT_77 249 RESIDUE 1 **** WAT 1
78 WAT_78 252 RESIDUE 1 **** WAT 1
79 WAT_79 255 RESIDUE 1 **** WAT 1
80 WAT_80 258 RESIDUE 1 **** WAT 1
81 WAT_81 261 RESIDUE 1 **** WAT 1
82 WAT_82 264 RESIDUE 1 **** WAT 1
83 WAT_83 267 RESIDUE 1 **** WAT 1
84 WAT_84 270 RESIDUE 1 **** WAT 1
85 WAT_85 273 RESIDUE 1 **** WAT 1
86 WAT_86 276 RESIDUE 1 **** WAT 1
87 WAT_87 279 RESIDUE 1 **** WAT 1
88 WAT_88 282 RESIDUE 1 **** WAT 1
89 WAT_89 285 RESIDUE 1 **** WAT 1
90 WAT_90 288 RESIDUE 1 **** WAT 1
91 WAT_91 291 RESIDUE 1 **** WAT 1
92 WAT_92 294 RESIDUE 1 **** WAT 1
93 WAT_93 297 RESIDUE 1 **** WAT 1
94 WAT_94 300 RESIDUE 1 **** WAT 1
95 WAT_95 303 RESIDUE 1 **** WAT 1
96 WAT_96 306 RESIDUE 1 **** WAT 1
97 WAT_97 309 RESIDUE 1 **** WAT 1
98 WAT_98 312 RESIDUE 1 **** WAT 1
99 WAT_99 315 RESIDUE 1 **** WAT 1
100 WAT_100 318 RESIDUE 1 **** WAT 1
101 WAT_101 321 RESIDUE 1 **** WAT 1
102 WAT_102 324 RESIDUE 1 **** WAT 1
103 WAT_103 327 RESIDUE 1 **** WAT 1
104 WAT_104 330 RESIDUE 1 **** WAT 1
105 WAT_105 333 RESIDUE 1 **** WAT 1
106 WAT_106 336 RESIDUE 1 **** WAT 1
107 WAT_107 339 RESIDUE 1 **** WAT 1
108 WAT_108 342 RESIDUE 1 **** WAT 1
109 WAT_109 345 RESIDUE 1 **** WAT 1
110 WAT_110 348 RESIDUE 1 **** WAT 1
111 WAT_111 351 RESIDUE 1 **** WAT 1
112 WAT_112 354 RESIDUE 1 **** WAT 1
113 WAT_113 357 RESIDUE 1 **** WAT 1
114 WAT_114 360 RESIDUE 1 **** WAT 1
115 WAT_115 363 RESIDUE 1 **** WAT 1
116 WAT_116 366 RESIDUE 1 **** WAT 1
117 WAT_117 369 RESIDUE 1 **** WAT 1
118 WAT_118 372 RESIDUE 1 **** WAT 1
119 WAT_119 375 RESIDUE 1 **** WAT 1
120 WAT_120 378 RESIDUE 1 **** WAT 1
121 WAT_121 381 RESIDUE 1 **** WAT 1
122 WAT_122 384 RESIDUE 1 **** WAT 1
123 WAT_123 387 RESIDUE 1 **** WAT 1
124 WAT_124 390 RESIDUE 1 **** WAT 1
125 WAT_125 393 RESIDUE 1 **** WAT 1
126 WAT_126 396 RESIDUE 1 **** WAT 1
127 WAT_127 399 RESIDUE 1 **** WAT 1
128 WAT_128 402 RESIDUE 1 **** WAT 1
129 WAT_129 405 RESIDUE 1 **** WAT 1
130 WAT_130 408 RESIDUE 1 **** WAT 1
131 WAT_131 411 RESIDUE 1 **** WAT 1
132 WAT_132 414 RESIDUE 1 **** WAT 1
133 WAT_133 417 RESIDUE 1 **** WAT 1
134 WAT_134 420 RESIDUE 1 **** WAT 1
135 WAT_135 423 RESIDUE 1 **** WAT 1
136 WAT_136 426 RESIDUE 1 **** WAT 1
137 WAT_137 429 RESIDUE 1 **** WAT 1
138 WAT_138 432 RESIDUE 1 **** WAT 1
139 WAT_139 435 RESIDUE 1 **** WAT 1
140 WAT_140 438 RESIDUE 1 **** WAT 1
141 WAT_141 441 RESIDUE 1 **** WAT 1
142 WAT_142 444 RESIDUE 1 **** WAT 1
143 WAT_143 447 RESIDUE 1 **** WAT 1
144 WAT_144 450 RESIDUE 1 **** WAT 1
145 WAT_145 453 RESIDUE 1 **** WAT 1
146 WAT_146 456 RESIDUE 1 **** WAT 1
147 WAT_147 459 RESIDUE 1 **** WAT 1
148 WAT_148 462 RESIDUE 1 **** WAT 1
149 WAT_149 465 RESIDUE 1 **** WAT 1
150 WAT_150 468 RESIDUE 1 **** WAT 1
151 WAT_151 471 RESIDUE 1 **** WAT 1
152 WAT_152 474 RESIDUE 1 **** WAT 1
153 WAT_153 477 RESIDUE 1 **** WAT 1
154 WAT_154 480 RESIDUE 1 **** WAT 1
155 WAT_155 483 RESIDUE 1 **** WAT 1
156 WAT_156 486 RESIDUE 1 **** WAT 1
157 WAT_157 489 RESIDUE 1 **** WAT 1
158 WAT_158 492 RESIDUE 1 **** WAT 1
159 WAT_159 495 RESIDUE 1 **** WAT 1
160 WAT_160 498 RESIDUE 1 **** WAT 1
161 WAT_161 501 RESIDUE 1 **** WAT 1
162 WAT_162 504 RESIDUE 1 **** WAT 1
163 WAT_163 507 RESIDUE 1 **** WAT 1
164 WAT_164 510 RESIDUE 1 **** WAT 1
165 WAT_165 513 RESIDUE 1 **** WAT 1
166 WAT_166 516 RESIDUE 1 **** WAT 1
167 WAT_167 519 RESIDUE 1 **** WAT 1
168 WAT_168 522 RESIDUE 1 **** WAT 1
169 WAT_169 525 RESIDUE 1 **** WAT 1
170 WAT_170 528 RESIDUE 1 **** WAT 1
171 WAT_171 531 RESIDUE 1 **** WAT 1
172 WAT_172 534 RESIDUE 1 **** WAT 1
173 WAT_173 537 RESIDUE 1 **** WAT 1
174 WAT_174 540 RESIDUE 1 **** WAT 1
175 WAT_175 543 RESIDUE 1 **** WAT 1
176 WAT_176 546 RESIDUE 1 **** WAT 1
177 WAT_177 549 RESIDUE 1 **** WAT 1
178 WAT_178 552 RESIDUE 1 **** WAT 1
179 WAT_179 555 RESIDUE 1 **** WAT 1
180 WAT_180 558 RESIDUE 1 **** WAT 1
181 WAT_181 561 RESIDUE 1 **** WAT 1
182 WAT_182 564 RESIDUE 1 **** WAT 1
183 WAT_183 567 RESIDUE 1 **** WAT 1
184 WAT_184 570 RESIDUE 1 **** WAT 1
185 WAT_185 573 RESIDUE 1 **** WAT 1
186 WAT_186 576 RESIDUE 1 **** WAT 1
187 WAT_187 579 RESIDUE 1 **** WAT 1
188 WAT_188 582 RESIDUE 1 **** WAT 1
189 WAT_189 585 RESIDUE 1 **** WAT 1
190 WAT_190 588 RESIDUE 1 **** WAT 1
191 WAT_191 591 RESIDUE 1 **** WAT 1
192 WAT_192 594 RESIDUE 1 **** WAT 1
193 WAT_193 597 RESIDUE 1 **** WAT 1
194 WAT_194 600 RESIDUE 1 **** WAT 1
195 WAT_195 603 RESIDUE 1 **** WAT 1
196 WAT_196 606 RESIDUE 1 **** WAT 1
197 WAT_197 609 RESIDUE 1 **** WAT 1
198 WAT_198 612 RESIDUE 1 **** WAT 1
199 WAT_199 615 RESIDUE 1 **** WAT 1
200 WAT_200 618 RESIDUE 1 **** WAT 1
201 WAT_201 621 RESIDUE 1 **** WAT 1
202 WAT_202 624 RESIDUE 1 **** WAT 1
203 WAT_203 627 RESIDUE 1 **** WAT 1
204 WAT_204 630 RESIDUE 1 **** WAT 1
205 WAT_205 633 RESIDUE 1 **** WAT 1
206 WAT_206 636 RESIDUE 1 **** WAT 1
207 WAT_207 639 RESIDUE 1 **** WAT 1
208 WAT_208 642 RESIDUE 1 **** WAT 1
209 WAT_209 645 RESIDUE 1 **** WAT 1
210 WAT_210 648 RESIDUE 1 **** WAT 1
211 WAT_211 651 RESIDUE 1 **** WAT 1
212 WAT_212 654 RESIDUE 1 **** WAT 1
213 WAT_213 657 RESIDUE 1 **** WAT 1
214 WAT_214 660 RESIDUE 1 **** WAT 1
215 WAT_215 663 RESIDUE 1 **** WAT 1
216 WAT_216 666 RESIDUE 1 **** WAT 1
217 WAT_217 669 RESIDUE 1 **** WAT 1
218 WAT_218 672 RESIDUE 1 **** WAT 1
219 WAT_219 675 RESIDUE 1 **** WAT 1
220 WAT_220 678 RESIDUE 1 **** WAT 1
221 WAT_221 681 RESIDUE 1 **** WAT 1
222 WAT_222 684 RESIDUE 1 **** WAT 1
223 WAT_223 687 RESIDUE 1 **** WAT 1
224 WAT_224 690 RESIDUE 1 **** WAT 1
225 WAT_225 693 RESIDUE 1 **** WAT 1
226 WAT_226 696 RESIDUE 1 **** WAT 1
227 WAT_227 699 RESIDUE 1 **** WAT 1
228 WAT_228 702 RESIDUE 1 **** WAT 1
229 WAT_229 705 RESIDUE 1 **** WAT 1
230 WAT_230 708 RESIDUE 1 **** WAT 1
231 WAT_231 711 RESIDUE 1 **** WAT 1
232 WAT_232 714 RESIDUE 1 **** WAT 1
233 WAT_233 717 RESIDUE 1 **** WAT 1
234 WAT_234 720 RESIDUE 1 **** WAT 1
235 WAT_235 723 RESIDUE 1 **** WAT 1
236 WAT_236 726 RESIDUE 1 **** WAT 1
237 WAT_237 729 RESIDUE 1 **** WAT 1
238 WAT_238 732 RESIDUE 1 **** WAT 1
239 WAT_239 735 RESIDUE 1 **** WAT 1
240 WAT_240 738 RESIDUE 1 **** WAT 1
241 WAT_241 741 RESIDUE 1 **** WAT 1
242 WAT_242 744 RESIDUE 1 **** WAT 1
243 WAT_243 747 RESIDUE 1 **** WAT 1
244 WAT_244 750 RESIDUE 1 **** WAT 1
245 WAT_245 753 RESIDUE 1 **** WAT 1
246 WAT_246 756 RESIDUE 1 **** WAT 1
247 WAT_247 759 RESIDUE 1 **** WAT 1
248 WAT_248 762 RESIDUE 1 **** WAT 1
249 WAT_249 765 RESIDUE 1 **** WAT 1
250 WAT_250 768 RESIDUE 1 **** WAT 1
251 WAT_251 771 RESIDUE 1 **** WAT 1
252 WAT_252 774 RESIDUE 1 **** WAT 1
253 WAT_253 777 RESIDUE 1 **** WAT 1
254 WAT_254 780 RESIDUE 1 **** WAT 1
255 WAT_255 783 RESIDUE 1 **** WAT 1
256 WAT_256 786 RESIDUE 1 **** WAT 1
257 WAT_257 789 RESIDUE 1 **** WAT 1
258 WAT_258 792 RESIDUE 1 **** WAT 1
259 WAT_259 795 RESIDUE 1 **** WAT 1
260 WAT_260 798 RESIDUE 1 **** WAT 1
261 WAT_261 801 RESIDUE 1 **** WAT 1
262 WAT_262 804 RESIDUE 1 **** WAT 1
263 WAT_263 807 RESIDUE 1 **** WAT 1
264 WAT_264 810 RESIDUE 1 **** WAT 1
265 WAT_265 813 RESIDUE 1 **** WAT 1
266 WAT_266 816 RESIDUE 1 **** WAT 1
267 WAT_267 819 RESIDUE 1 **** WAT 1
268 WAT_268 822 RESIDUE 1 **** WAT 1
269 WAT_269 825 RESIDUE 1 **** WAT 1
270 WAT_270 828 RESIDUE 1 **** WAT 1
271 WAT_271 831 RESIDUE 1 **** WAT 1
272 WAT_272 834 RESIDUE 1 **** WAT 1
273 WAT_273 837 RESIDUE 1 **** WAT 1
274 WAT_274 840 RESIDUE 1 **** WAT 1
275 WAT_275 843 RESIDUE 1 **** WAT 1
276 WAT_276 846 RESIDUE 1 **** WAT 1
277 WAT_277 849 RESIDUE 1 **** WAT 1
278 WAT_278 852 RESIDUE 1 **** WAT 1
279 WAT_279 855 RESIDUE 1 **** WAT 1
280 WAT_280 858 RESIDUE 1 **** WAT 1
281 WAT_281 861 RESIDUE 1 **** WAT 1
282 WAT_282 864 RESIDUE 1 **** WAT 1
283 WAT_283 867 RESIDUE 1 **** WAT 1
284 WAT_284 870 RESIDUE 1 **** WAT 1
285 WAT_285 873 RESIDUE 1 **** WAT 1
286 WAT_286 876 RESIDUE 1 **** WAT 1
287 WAT_287 879 RESIDUE 1 **** WAT 1
288 WAT_288 882 RESIDUE 1 **** WAT 1
289 WAT_289 885 RESIDUE 1 **** WAT 1
290 WAT_290 888 RESIDUE 1 **** WAT 1
291 WAT_291 891 RESIDUE 1 **** WAT 1
292 WAT_292 894 RESIDUE 1 **** WAT 1
293 WAT_293 897 RESIDUE 1 **** WAT 1
294 WAT_294 900 RESIDUE 1 **** WAT 1
295 WAT_295 903 RESIDUE 1 **** WAT 1
296 WAT_296 906 RESIDUE 1 **** WAT 1
297 WAT_297 909 RESIDUE 1 **** WAT 1
298 WAT_298 912 RESIDUE 1 **** WAT 1
299 WAT_299 915 RESIDUE 1 **** WAT 1
300 WAT_300 918 RESIDUE 1 **** WAT 1
301 WAT_301 921 RESIDUE 1 **** WAT 1
302 WAT_302 924 RESIDUE 1 **** WAT 1
303 WAT_303 927 RESIDUE 1 **** WAT 1
304 WAT_304 930 RESIDUE 1 **** WAT 1
305 WAT_305 933 RESIDUE 1 **** WAT 1
306 WAT_306 936 RESIDUE 1 **** WAT 1
307 WAT_307 939 RESIDUE 1 **** WAT 1
308 WAT_308 942 RESIDUE 1 **** WAT 1
309 WAT_309 945 RESIDUE 1 **** WAT 1
310 WAT_310 948 RESIDUE 1 **** WAT 1
311 WAT_311 951 RESIDUE 1 **** WAT 1
312 WAT_312 954 RESIDUE 1 **** WAT 1
313 WAT_313 957 RESIDUE 1 **** WAT 1
314 WAT_314 960 RESIDUE 1 **** WAT 1
315 WAT_315 963 RESIDUE 1 **** WAT 1
316 WAT_316 966 RESIDUE 1 **** WAT 1
317 WAT_317 969 RESIDUE 1 **** WAT 1
318 WAT_318 972 RESIDUE 1 **** WAT 1
319 WAT_319 975 RESIDUE 1 **** WAT 1
320 WAT_320 978 RESIDUE 1 **** WAT 1
321 WAT_321 981 RESIDUE 1 **** WAT 1
322 WAT_322 984 RESIDUE 1 **** WAT 1
323 WAT_323 987 RESIDUE 1 **** WAT 1
324 WAT_324 990 RESIDUE 1 **** WAT 1
325 WAT_325 993 RESIDUE 1 **** WAT 1
326 WAT_326 996 RESIDUE 1 **** WAT 1
327 WAT_327 999 RESIDUE 1 **** WAT 1
328 WAT_328 1002 RESIDUE 1 **** WAT 1
329 WAT_329 1005 RESIDUE 1 **** WAT 1
330 WAT_330 1008 RESIDUE 1 **** WAT 1
331 WAT_331 1011 RESIDUE 1 **** WAT 1
332 WAT_332 1014 RESIDUE 1 **** WAT 1
333 WAT_333 1017 RESIDUE 1 **** WAT 1
334 WAT_334 1020 RESIDUE 1 **** WAT 1
335 WAT_335 1023 RESIDUE 1 **** WAT 1
336 WAT_336 1026 RESIDUE 1 **** WAT 1
337 WAT_337 1029 RESIDUE 1 **** WAT 1
338 WAT_338 1032 RESIDUE 1 **** WAT 1
339 WAT_339 1035 RESIDUE 1 **** WAT 1
340 WAT_340 1038 RESIDUE 1 **** WAT 1
341 WAT_341 1041 RESIDUE 1 **** WAT 1
342 WAT_342 1044 RESIDUE 1 **** WAT 1
343 WAT_343 1047 RESIDUE 1 **** WAT 1
344 WAT_344 1050 RESIDUE 1 **** WAT 1
345 WAT_345 1053 RESIDUE 1 **** WAT 1
346 WAT_346 1056 RESIDUE 1 **** WAT 1
347 WAT_347 1059 RESIDUE 1 **** WAT 1
348 WAT_348 1062 RESIDUE 1 **** WAT 1
349 WAT_349 1065 RESIDUE 1 **** WAT 1
350 WAT_350 1068 RESIDUE 1 **** WAT 1
351 WAT_351 1071 RESIDUE 1 **** WAT 1
352 WAT_352 1074 RESIDUE 1 **** WAT 1
353 WAT_353 1077 RESIDUE 1 **** WAT 1
354 WAT_354 1080 RESIDUE 1 **** WAT 1
355 WAT_355 1083 RESIDUE 1 **** WAT 1
356 WAT_356 1086 RESIDUE 1 **** WAT 1
357 WAT_357 1089 RESIDUE 1 **** WAT 1
358 WAT_358 1092 RESIDUE 1 **** WAT 1
359 WAT_359 1095 RESIDUE 1 **** WAT 1
360 WAT_360 1098 RESIDUE 1 **** WAT 1
361 WAT_361 1101 RESIDUE 1 **** WAT 1
362 WAT_362 1104 RESIDUE 1 **** WAT 1
363 WAT_363 1107 RESIDUE 1 **** WAT 1
364 WAT_364 1110 RESIDUE 1 **** WAT 1
365 WAT_365 1113 RESIDUE 1 **** WAT 1
366 WAT_366 1116 RESIDUE 1 **** WAT 1
367 WAT_367 1119 RESIDUE 1 **** WAT 1
368 WAT_368 1122 RESIDUE 1 **** WAT 1
369 WAT_369 1125 RESIDUE 1 **** WAT 1
370 WAT_370 1128 RESIDUE 1 **** WAT 1
371 WAT_371 1131 RESIDUE 1 **** WAT 1
372 WAT_372 1134 RESIDUE 1 **** WAT 1
373 WAT_373 1137 RESIDUE 1 **** WAT 1
374 WAT_374 1140 RESIDUE 1 **** WAT 1
375 WAT_375 1143 RESIDUE 1 **** WAT 1
376 WAT_376 1146 RESIDUE 1 **** WAT 1
377 WAT_377 1149 RESIDUE 1 **** WAT 1
378 WAT_378 1152 RESIDUE 1 **** WAT 1
379 WAT_379 1155 RESIDUE 1 **** WAT 1
380 WAT_380 1158 RESIDUE 1 **** WAT 1
381 WAT_381 1161 RESIDUE 1 **** WAT 1
382 WAT_382 1164 RESIDUE 1 **** WAT 1
383 WAT_383 1167 RESIDUE 1 **** WAT 1
384 WAT_384 1170 RESIDUE 1 **** WAT 1
385 WAT_385 1173 RESIDUE 1 **** WAT 1
386 WAT_386 1176 RESIDUE 1 **** WAT 1
387 WAT_387 1179 RESIDUE 1 **** WAT 1
388 WAT_388 1182 RESIDUE 1 **** WAT 1
389 WAT_389 1185 RESIDUE 1 **** WAT 1
390 WAT_390 1188 RESIDUE 1 **** WAT 1
391 WAT_391 1191 RESIDUE 1 **** WAT 1
392 WAT_392 1194 RESIDUE 1 **** WAT 1
393 WAT_393 1197 RESIDUE 1 **** WAT 1
394 WAT_394 1200 RESIDUE 1 **** WAT 1
395 WAT_395 1203 RESIDUE 1 **** WAT 1
396 WAT_396 1206 RESIDUE 1 **** WAT 1
397 WAT_397 1209 RESIDUE 1 **** WAT 1
398 WAT_398 1212 RESIDUE 1 **** WAT 1
399 WAT_399 1215 RESIDUE 1 **** WAT 1
400 WAT_400 1218 RESIDUE 1 **** WAT 1
401 WAT_401 1221 RESIDUE 1 **** WAT 1
402 WAT_402 1224 RESIDUE 1 **** WAT 1
403 WAT_403 1227 RESIDUE 1 **** WAT 1
404 WAT_404 1230 RESIDUE 1 **** WAT 1
405 WAT_405 1233 RESIDUE 1 **** WAT 1
406 WAT_406 1236 RESIDUE 1 **** WAT 1
407 WAT_407 1239 RESIDUE 1 **** WAT 1
408 WAT_408 1242 RESIDUE 1 **** WAT 1
409 WAT_409 1245 RESIDUE 1 **** WAT 1
410 WAT_410 1248 RESIDUE 1 **** WAT 1
411 WAT_411 1251 RESIDUE 1 **** WAT 1
412 WAT_412 1254 RESIDUE 1 **** WAT 1
413 WAT_413 1257 RESIDUE 1 **** WAT 1
414 WAT_414 1260 RESIDUE 1 **** WAT 1
415 WAT_415 1263 RESIDUE 1 **** WAT 1
416 WAT_416 1266 RESIDUE 1 **** WAT 1
417 WAT_417 1269 RESIDUE 1 **** WAT 1
418 WAT_418 1272 RESIDUE 1 **** WAT 1
419 WAT_419 1275 RESIDUE 1 **** WAT 1
420 WAT_420 1278 RESIDUE 1 **** WAT 1
421 WAT_421 1281 RESIDUE 1 **** WAT 1
422 WAT_422 1284 RESIDUE 1 **** WAT 1
423 WAT_423 1287 RESIDUE 1 **** WAT 1
424 WAT_424 1290 RESIDUE 1 **** WAT 1
425 WAT_425 1293 RESIDUE 1 **** WAT 1
426 WAT_426 1296 RESIDUE 1 **** WAT 1
427 WAT_427 1299 RESIDUE 1 **** WAT 1
428 WAT_428 1302 RESIDUE 1 **** WAT 1
429 WAT_429 1305 RESIDUE 1 **** WAT 1
430 WAT_430 1308 RESIDUE 1 **** WAT 1
431 WAT_431 1311 RESIDUE 1 **** WAT 1
432 WAT_432 1314 RESIDUE 1 **** WAT 1
433 WAT_433 1317 RESIDUE 1 **** WAT 1
434 WAT_434 1320 RESIDUE 1 **** WAT 1
435 WAT_435 1323 RESIDUE 1 **** WAT 1
436 WAT_436 1326 RESIDUE 1 **** WAT 1
437 WAT_437 1329 RESIDUE 1 **** WAT 1
438 WAT_438 1332 RESIDUE 1 **** WAT 1
439 WAT_439 1335 RESIDUE 1 **** WAT 1
440 WAT_440 1338 RESIDUE 1 **** WAT 1
441 WAT_441 1341 RESIDUE 1 **** WAT 1
442 WAT_442 1344 RESIDUE 1 **** WAT 1
443 WAT_443 1347 RESIDUE 1 **** WAT 1
444 WAT_444 1350 RESIDUE 1 **** WAT 1
445 WAT_445 1353 RESIDUE 1 **** WAT 1
446 WAT_446 1356 RESIDUE 1 **** WAT 1
447 WAT_447 1359 RESIDUE 1 **** WAT 1
448 WAT_448 1362 RESIDUE 1 **** WAT 1
449 WAT_449 1365 RESIDUE 1 **** WAT 1
450 WAT_450 1368 RESIDUE 1 **** WAT 1
451 WAT_451 1371 RESIDUE 1 **** WAT 1
452 WAT_452 1374 RESIDUE 1 **** WAT 1
453 WAT_453 1377 RESIDUE 1 **** WAT 1
454 WAT_454 1380 RESIDUE 1 **** WAT 1
455 WAT_455 1383 RESIDUE 1 **** WAT 1
456 WAT_456 1386 RESIDUE 1 **** WAT 1
457 WAT_457 1389 RESIDUE 1 **** WAT 1
458 WAT_458 1392 RESIDUE 1 **** WAT 1
459 WAT_459 1395 RESIDUE 1 **** WAT 1
460 WAT_460 1398 RESIDUE 1 **** WAT 1
461 WAT_461 1401 RESIDUE 1 **** WAT 1
462 WAT_462 1404 RESIDUE 1 **** WAT 1
463 WAT_463 1407 RESIDUE 1 **** WAT 1
464 WAT_464 1410 RESIDUE 1 **** WAT 1
465 WAT_465 1413 RESIDUE 1 **** WAT 1
466 WAT_466 1416 RESIDUE 1 **** WAT 1
467 WAT_467 1419 RESIDUE 1 **** WAT 1
468 WAT_468 1422 RESIDUE 1 **** WAT 1
469 WAT_469 1425 RESIDUE 1 **** WAT 1
470 WAT_470 1428 RESIDUE 1 **** WAT 1
471 WAT_471 1431 RESIDUE 1 **** WAT 1
472 WAT_472 1434 RESIDUE 1 **** WAT 1
473 WAT_473 1437 RESIDUE 1 **** WAT 1
474 WAT_474 1440 RESIDUE 1 **** WAT 1
475 WAT_475 1443 RESIDUE 1 **** WAT 1
476 WAT_476 1446 RESIDUE 1 **** WAT 1
477 WAT_477 1449 RESIDUE 1 **** WAT 1
478 WAT_478 1452 RESIDUE 1 **** WAT 1
479 WAT_479 1455 RESIDUE 1 **** WAT 1
480 WAT_480 1458 RESIDUE 1 **** WAT 1
481 WAT_481 1461 RESIDUE 1 **** WAT 1
482 WAT_482 1464 RESIDUE 1 **** WAT 1
483 WAT_483 1467 RESIDUE 1 **** WAT 1
484 WAT_484 1470 RESIDUE 1 **** WAT 1
485 WAT_485 1473 RESIDUE 1 **** WAT 1
486 WAT_486 1476 RESIDUE 1 **** WAT 1
487 WAT_487 1479 RESIDUE 1 **** WAT 1
488 WAT_488 1482 RESIDUE 1 **** WAT 1
489 WAT_489 1485 RESIDUE 1 **** WAT 1
490 WAT_490 1488 RESIDUE 1 **** WAT 1
491 WAT_491 1491 RESIDUE 1 **** WAT 1
492 WAT_492 1494 RESIDUE 1 **** WAT 1
493 WAT_493 1497 RESIDUE 1 **** WAT 1
494 WAT_494 1500 RESIDUE 1 **** WAT 1
495 WAT_495 1503 RESIDUE 1 **** WAT 1
496 WAT_496 1506 RESIDUE 1 **** WAT 1
497 WAT_497 1509 RESIDUE 1 **** WAT 1
498 WAT_498 1512 RESIDUE 1 **** WAT 1
499 WAT_499 1515 RESIDUE 1 **** WAT 1
500 WAT_500 1518 RESIDUE 1 **** WAT 1
501 WAT_501 1521 RESIDUE 1 **** WAT 1
502 WAT_502 1524 RESIDUE 1 **** WAT 1
503 WAT_503 1527 RESIDUE 1 **** WAT 1
504 WAT_504 1530 RESIDUE 1 **** WAT 1
505 WAT_505 1533 RESIDUE 1 **** WAT 1
506 WAT_506 1536 RESIDUE 1 **** WAT 1
507 WAT_507 1539 RESIDUE 1 **** WAT 1
508 WAT_508 1542 RESIDUE 1 **** WAT 1
509 WAT_509 1545 RESIDUE 1 **** WAT 1
510 WAT_510 1548 RESIDUE 1 **** WAT 1
511 WAT_511 1551 RESIDUE 1 **** WAT 1
512 WAT_512 1554 RESIDUE 1 **** WAT 1
513 WAT_513 1557 RESIDUE 1 **** WAT 1
514 WAT_514 1560 RESIDUE 1 **** WAT 1
515 WAT_515 1563 RESIDUE 1 **** WAT 1
516 WAT_516 1566 RESIDUE 1 **** WAT 1
517 WAT_517 1569 RESIDUE 1 **** WAT 1
518 WAT_518 1572 RESIDUE 1 **** WAT 1
519 WAT_519 1575 RESIDUE 1 **** WAT 1
520 WAT_520 1578 RESIDUE 1 **** WAT 1
521 WAT_521 1581 RESIDUE 1 **** WAT 1
522 WAT_522 1584 RESIDUE 1 **** WAT 1
523 WAT_523 1587 RESIDUE 1 **** WAT 1
524 WAT_524 1590 RESIDUE 1 **** WAT 1
525 WAT_525 1593 RESIDUE 1 **** WAT 1
526 WAT_526 1596 RESIDUE 1 **** WAT 1
527 WAT_527 1599 RESIDUE 1 **** WAT 1
528 WAT_528 1602 RESIDUE 1 **** WAT 1
529 WAT_529 1605 RESIDUE 1 **** WAT 1
530 WAT_530 1608 RESIDUE 1 **** WAT 1
531 WAT_531 1611 RESIDUE 1 **** WAT 1
532 WAT_532 1614 RESIDUE 1 **** WAT 1
533 WAT_533 1617 RESIDUE 1 **** WAT 1
534 WAT_534 1620 RESIDUE 1 **** WAT 1
535 WAT_535 1623 RESIDUE 1 **** WAT 1
536 WAT_536 1626 RESIDUE 1 **** WAT 1
537 WAT_537 1629 RESIDUE 1 **** WAT 1
538 WAT_538 1632 RESIDUE 1 **** WAT 1
539 WAT_539 1635 RESIDUE 1 **** WAT 1
540 WAT_540 1638 RESIDUE 1 **** WAT 1
541 WAT_541 1641 RESIDUE 1 **** WAT 1
542 WAT_542 1644 RESIDUE 1 **** WAT 1
543 WAT_543 1647 RESIDUE 1 **** WAT 1
544 WAT_544 1650 RESIDUE 1 **** WAT 1
545 WAT_545 1653 RESIDUE 1 **** WAT 1
546 WAT_546 1656 RESIDUE 1 **** WAT 1
547 WAT_547 1659 RESIDUE 1 **** WAT 1
548 WAT_548 1662 RESIDUE 1 **** WAT 1
549 WAT_549 1665 RESIDUE 1 **** WAT 1
550 WAT_550 1668 RESIDUE 1 **** WAT 1
551 WAT_551 1671 RESIDUE 1 **** WAT 1
552 WAT_552 1674 RESIDUE 1 **** WAT 1
553 WAT_553 1677 RESIDUE 1 **** WAT 1
554 WAT_554 1680 RESIDUE 1 **** WAT 1
555 WAT_555 1683 RESIDUE 1 **** WAT 1
556 WAT_556 1686 RESIDUE 1 **** WAT 1
557 WAT_557 1689 RESIDUE 1 **** WAT 1
558 WAT_558 1692 RESIDUE 1 **** WAT 1
559 WAT_559 1695 RESIDUE 1 **** WAT 1
560 WAT_560 1698 RESIDUE 1 **** WAT 1
561 WAT_561 1701 RESIDUE 1 **** WAT 1
562 WAT_562 1704 RESIDUE 1 **** WAT 1
563 WAT_563 1707 RESIDUE 1 **** WAT 1
564 WAT_564 1710 RESIDUE 1 **** WAT 1
565 WAT_565 1713 RESIDUE 1 **** WAT 1
566 WAT_566 1716 RESIDUE 1 **** WAT 1
567 WAT_567 1719 RESIDUE 1 **** WAT 1
568 WAT_568 1722 RESIDUE 1 **** WAT 1
569 WAT_569 1725 RESIDUE 1 **** WAT 1
570 WAT_570 1728 RESIDUE 1 **** WAT 1
571 WAT_571 1731 RESIDUE 1 **** WAT 1
572 WAT_572 1734 RESIDUE 1 **** WAT 1
573 WAT_573 1737 RESIDUE 1 **** WAT 1
574 WAT_574 1740 RESIDUE 1 **** WAT 1
575 WAT_575 1743 RESIDUE 1 **** WAT 1
576 WAT_576 1746 RESIDUE 1 **** WAT 1
577 WAT_577 1749 RESIDUE 1 **** WAT 1
578 WAT_578 1752 RESIDUE 1 **** WAT 1
579 WAT_579 1755 RESIDUE 1 **** WAT 1
580 WAT_580 1758 RESIDUE 1 **** WAT 1
581 WAT_581 1761 RESIDUE 1 **** WAT 1
582 WAT_582 1764 RESIDUE 1 **** WAT 1
583 WAT_583 1767 RESIDUE 1 **** WAT 1
584 WAT_584 1770 RESIDUE 1 **** WAT 1
585 WAT_585 1773 RESIDUE 1 **** WAT 1
586 WAT_586 1776 RESIDUE 1 **** WAT 1
587 WAT_587 1779 RESIDUE 1 **** WAT 1
588 WAT_588 1782 RESIDUE 1 **** WAT 1
589 WAT_589 1785 RESIDUE 1 **** WAT 1
590 WAT_590 1788 RESIDUE 1 **** WAT 1
591 WAT_591 1791 RESIDUE 1 **** WAT 1
592 WAT_592 1794 RESIDUE 1 **** WAT 1
593 WAT_593 1797 RESIDUE 1 **** WAT 1
594 WAT_594 1800 RESIDUE 1 **** WAT 1
595 WAT_595 1803 RESIDUE 1 **** WAT 1
596 WAT_596 1806 RESIDUE 1 **** WAT 1
597 WAT_597 1809 RESIDUE 1 **** WAT 1
598 WAT_598 1812 RESIDUE 1 **** WAT 1
599 WAT_599 1815 RESIDUE 1 **** WAT 1
600 WAT_600 1818 RESIDUE 1 **** WAT 1
601 WAT_601 1821 RESIDUE 1 **** WAT 1
602 WAT_602 1824 RESIDUE 1 **** WAT 1
603 WAT_603 1827 RESIDUE 1 **** WAT 1
604 WAT_604 1830 RESIDUE 1 **** WAT 1
