@<TRIPOS>MOLECULE
Cpptraj generated mol2 file.
   12    12     1     0     0
SMALL
USER_CHARGES


@<TRIPOS>ATOM
      1 C1         20.3760   25.1119   30.3998 c2         1 COR     -0.130000
      2 C_4        20.6804   24.9592   29.0976 c2         1 COR     -0.130000
      3 C_12       21.0640   26.0375   31.1371 c2         1 COR     -0.130000
      4 C3         21.6620   25.6691   28.5358 c2         1 COR     -0.130000
      5 C5         22.0069   26.8389   30.5910 c2         1 COR     -0.130000
      6 C_8        22.3549   26.6663   29.2791 c2         1 COR     -0.130000
      7 H1         19.6360   24.4712   30.8745 ha         1 COR      0.130000
      8 H2         20.2190   24.2172   28.4495 ha         1 COR      0.130000
      9 H3         21.9045   25.5707   27.4798 ha         1 COR      0.130000
     10 H4         22.4424   27.5669   31.2721 ha         1 COR      0.130000
     11 H5         23.1649   27.1656   28.7518 ha         1 COR      0.130000
     12 H7         20.7533   26.0973   32.1779 ha         1 COR      0.130000
@<TRIPOS>BOND
    1     2     1 1
    2     3     1 1
    3     4     2 1
    4     5     3 1
    5     6     4 1
    6     6     5 1
    7     7     1 1
    8     8     2 1
    9     9     4 1
   10    10     5 1
   11    11     6 1
   12    12     3 1
@<TRIPOS>SUBSTRUCTURE
      1 COR               1 ****               0 ****  **** 
