@<TRIPOS>MOLECULE
Cpptraj generated mol2 file.
   13    13     1     0     0
SMALL
USER_CHARGES


@<TRIPOS>ATOM
      1 C1         20.3760   25.1119   30.3998 c2         1 COR     -0.278223
      2 C_4        20.6804   24.9592   29.0976 c2         1 COR     -0.091923
      3 C_12       21.0640   26.0375   31.1371 c2         1 COR      0.378977
      4 C3         21.6620   25.6691   28.5358 c2         1 COR     -0.165923
      5 C5         22.0069   26.8389   30.5910 c2         1 COR     -0.222223
      6 C_8        22.3549   26.6663   29.2791 c2         1 COR     -0.096923
      7 H1         19.6360   24.4712   30.8745 ha         1 COR      0.133077
      8 H2         20.2190   24.2172   28.4495 ha         1 COR      0.132077
      9 H3         21.9045   25.5707   27.4798 ha         1 COR      0.133077
     10 H4         22.4424   27.5669   31.2721 ha         1 COR      0.150077
     11 H5         23.1649   27.1656   28.7518 ha         1 COR      0.134077
     12 O1         20.8048   26.1141   32.4266 oh         1 COR     -0.624223
     13 H7         20.0448   25.5299   32.5932 ho         1 COR      0.418077
@<TRIPOS>BOND
    1     2     1 1
    2     3     1 1
    3     3    12 1
    4     4     2 1
    5     4     6 1
    6     5     3 1
    7     5     6 1
    8     1     7 1
    9     2     8 1
   10     4     9 1
   11     5    10 1
   12    11     6 1
   13    13    12 1
@<TRIPOS>SUBSTRUCTURE
      1 COR               1 ****               0 ****  **** 
